20   
torsion grid (-165,)
C       -1.3082852101   -1.8059038374    0.1710490667
C       -0.5198032600   -1.1455059079    1.3867310114
C       -0.9279509698   -0.9753825361   -1.1352345094
C        0.5177872482   -0.3438910388    0.6075016771
C       -0.3748285007    0.2888370610   -0.4834799065
C        0.8780186019    1.0097311537    0.0038803877
C        0.6756730477    2.3245577085    0.7181192779
O        2.0778347290    1.0665104185   -0.7232824440
H       -1.0330086114   -2.8594590928    0.0548576689
H       -2.3889804513   -1.7797063216    0.3455182905
H       -1.1790992784   -0.5084726128    1.9837100631
H       -0.0899622108   -1.9026883542    2.0510953463
H       -0.1836275561   -1.5101013807   -1.7338044901
H       -1.8015189162   -0.7964776273   -1.7712779468
H        1.1829749670   -1.0605342033    0.1129960036
H       -1.2081978284    0.7926196185    0.0117316630
H        0.5203048406    3.1305520429   -0.0055507409
H        1.5700883379    2.5501026827    1.3064009318
H       -0.1808649071    2.2771102140    1.3942808197
H        2.0877626967    0.3329794841   -1.3576512948
20   
torsion grid (-150,)
C       -1.3006070234   -1.8056378570    0.1703697037
C       -0.5258128874   -1.1386263819    1.3912020085
C       -0.8988392434   -0.9856532890   -1.1361548703
C        0.5258892424   -0.3483674282    0.6201232733
C       -0.3538506619    0.2828964595   -0.4851392316
C        0.8941200039    0.9999661302    0.0114318206
C        0.6935013349    2.3183554712    0.7196453350
O        2.1003930613    1.0326824425   -0.7129916830
H       -1.0277691644   -2.8609354496    0.0648756285
H       -2.3835624916   -1.7741085686    0.3296799689
H       -1.1909873397   -0.4953571143    1.9748987017
H       -0.1073657909   -1.8925216164    2.0664511217
H       -0.1462028949   -1.5263304944   -1.7186439282
H       -1.7624252089   -0.8099704873   -1.7867193484
H        1.1960126341   -1.0660819860    0.1369060133
H       -1.1925769669    0.7914261810   -0.0041493632
H        0.5368113806    3.1223272850   -0.0061702486
H        1.5905580289    2.5455664592    1.3035233931
H       -0.1597853605    2.2743060193    1.4006929129
H        2.0038661903    0.4572298751   -1.4865846502
20   
torsion grid (-135,)
C       -1.3007024552   -1.8049500325    0.1743839362
C       -0.5349992662   -1.1299748001    1.3966298585
C       -0.8817933447   -0.9972923989   -1.1344939577
C        0.5274623963   -0.3531984669    0.6282151125
C       -0.3425201893    0.2770359965   -0.4891475532
C        0.9027055655    0.9886050659    0.0184059740
C        0.7028507161    2.3084974395    0.7254641359
O        2.1164768523    0.9939309012   -0.7011876656
H       -1.0313358241   -2.8622091580    0.0800787098
H       -2.3850554169   -1.7674601449    0.3229302501
H       -1.2032168473   -0.4789837735    1.9681938571
H       -0.1259925695   -1.8795811275    2.0823347514
H       -0.1229189177   -1.5436111995   -1.7029788645
H       -1.7378289887   -0.8256852777   -1.7961683102
H        1.1994799196   -1.0729027787    0.1533302452
H       -1.1850650953    0.7894558426   -0.0191783452
H        0.5568761242    3.1151308876    0.0000216328
H        1.5974601085    2.5294632422    1.3155185175
H       -0.1553230419    2.2703886156    1.4013280419
H        1.9415256223    0.6192106384   -1.5768196149
20   
torsion grid (-120,)
C       -1.3139761406   -1.8075260566    0.1823621664
C       -0.5511727527   -1.1262921819    1.4033603364
C       -0.8827705128   -1.0127939838   -1.1307125843
C        0.5188326907   -0.3645830954    0.6322537189
C       -0.3423662993    0.2653411060   -0.4935737236
C        0.9043374687    0.9692474090    0.0229031654
C        0.7068959690    2.2914669028    0.7285516520
O        2.1260815510    0.9403515128   -0.6874777795
H       -1.0501745222   -2.8670604165    0.0982624824
H       -2.3988571576   -1.7624905147    0.3250449322
H       -1.2190949736   -0.4670121445    1.9657049567
H       -0.1492873789   -1.8722381481    2.0971677897
H       -0.1217827054   -1.5654878881   -1.6894520525
H       -1.7344778364   -0.8430720300   -1.7985143909
H        1.1893676183   -1.0883901340    0.1635933408
H       -1.1851882137    0.7847630091   -0.0316241223
H        0.5703306135    3.1015155813    0.0044771990
H        1.5996106794    2.5055747911    1.3237549068
H       -0.1562556744    2.2604088256    1.3989157770
H        1.9116567226    0.7943267601   -1.6205523489
20   
torsion grid (-105,)
C       -1.3140527443   -1.8087505038    0.1898924904
C       -0.5471926733   -1.1211717097    1.4051218456
C       -0.8796160768   -1.0262367571   -1.1295480240
C        0.5247157496   -0.3723168193    0.6258595542
C       -0.3357201299    0.2558057084   -0.5040215657
C        0.9147529832    0.9538189193    0.0163829454
C        0.7174452860    2.2801920468    0.7173027627
O        2.1419739915    0.8948321283   -0.6840322696
H       -1.0557491977   -2.8703126391    0.1143086806
H       -2.3984930361   -1.7569167970    0.3338104669
H       -1.2115493458   -0.4544911396    1.9629165156
H       -0.1476506391   -1.8634552669    2.1042271513
H       -0.1190923103   -1.5840406612   -1.6832099099
H       -1.7309971521   -0.8596437382   -1.7986209989
H        1.1906881853   -1.1004389805    0.1588295130
H       -1.1765215980    0.7798118525   -0.0433042116
H        0.5956624430    3.0913902041   -0.0088236437
H        1.6036611181    2.4883875228    1.3239172584
H       -0.1558498590    2.2595423826    1.3750209177
H        1.9326879765    0.9864667719   -1.6259550471
20   
torsion grid (-90,)
C       -1.3124275246   -1.8117627816    0.1972041319
C       -0.5364174294   -1.1204000847    1.4047214014
C       -0.8817112958   -1.0383771989   -1.1289639976
C        0.5325519274   -0.3808039962    0.6140878643
C       -0.3309170212    0.2459455071   -0.5151240634
C        0.9262974074    0.9384751562    0.0062994472
C        0.7281471596    2.2712729448    0.6976455439
O        2.1568470621    0.8555822608   -0.6842742888
H       -1.0592123927   -2.8749493216    0.1268465080
H       -2.3957323450   -1.7542276242    0.3474855067
H       -1.1948220118   -0.4479979659    1.9626303472
H       -0.1355368414   -1.8604342948    2.1055103849
H       -0.1248018149   -1.6004736774   -1.6828458678
H       -1.7360489688   -0.8735536322   -1.7947322873
H        1.1922636781   -1.1130394942    0.1450981369
H       -1.1676283728    0.7739710855   -0.0511788765
H        0.6229004694    3.0794604806   -0.0350794325
H        1.6054356345    2.4772739388    1.3177484809
H       -0.1569869973    2.2643301451    1.3395438191
H        1.9928869326    1.1756026554   -1.5854963060
20   
torsion grid (-75,)
C       -1.3116240802   -1.8168007286    0.2035023832
C       -0.5237501652   -1.1231316498    1.4023227628
C       -0.8904895043   -1.0493733796   -1.1293480850
C        0.5382634112   -0.3886346018    0.5985556718
C       -0.3308202188    0.2357504636   -0.5261210696
C        0.9347918923    0.9255043401   -0.0085030893
C        0.7367835592    2.2648665615    0.6713348635
O        2.1663830312    0.8257032274   -0.6916159506
H       -1.0619109160   -2.8809969546    0.1355619455
H       -2.3933746912   -1.7556424430    0.3632564905
H       -1.1759286814   -0.4473691658    1.9634893870
H       -0.1181613447   -1.8615650618    2.1021572905
H       -0.1392202429   -1.6145091981   -1.6876125744
H       -1.7503797915   -0.8855755277   -1.7882022035
H        1.1921931335   -1.1239953464    0.1261088614
H       -1.1621197915    0.7677195129   -0.0565397327
H        0.6435003222    3.0689943344   -0.0682820374
H        1.6062228915    2.4713046082    1.3023148688
H       -0.1578007501    2.2699152772    1.2995366831
H        2.0806702351    1.3505152555   -1.5044345437
20   
torsion grid (-60,)
C       -1.3496281957   -1.7950539106    0.1494618275
C       -0.5237427356   -1.1683276858    1.3595763622
C       -0.9534484529   -0.9695263912   -1.1561360885
C        0.5250532641   -0.4067870947    0.5636583027
C       -0.3611202338    0.2783742645   -0.5083143570
C        0.9289412985    0.9273391933    0.0135538582
C        0.7585753466    2.2428197106    0.7456139446
O        2.1456770625    0.8363452669   -0.6940998766
H       -1.1141248843   -2.8574220675    0.0252442136
H       -2.4261496575   -1.7302456146    0.3400540330
H       -1.1534037190   -0.5129640043    1.9686090812
H       -0.1095831969   -1.9437040120    2.0129710387
H       -0.2240915731   -1.5156959269   -1.7604074986
H       -1.8280432466   -0.7647761552   -1.7834134937
H        1.1584423115   -1.1266595790    0.0411456872
H       -1.1731197929    0.7983671127    0.0066852121
H        0.6737702217    3.0754195406    0.0364523193
H        1.6326026665    2.4126515269    1.3816529422
H       -0.1339811715    2.2413088303    1.3760615817
H        2.1532877474    1.5596530479   -1.3428546798
20   
torsion grid (-45,)
C       -1.3658810165   -1.8016888350    0.1594956518
C       -0.5272170433   -1.1780994351    1.3624104183
C       -0.9824305521   -0.9748770343   -1.1491183626
C        0.5133387571   -0.4148248097    0.5567578583
C       -0.3795207626    0.2702238189   -0.5062743048
C        0.9193382879    0.9171167755    0.0030489762
C        0.7548391280    2.2393513509    0.7235353220
O        2.1282621368    0.8187072348   -0.7158209237
H       -1.1324981870   -2.8641036442    0.0317212263
H       -2.4403490960   -1.7362881569    0.3611238957
H       -1.1501841572   -0.5229474034    1.9785729484
H       -0.1073460791   -1.9548885322    2.0105133175
H       -0.2609120886   -1.5215814834   -1.7622500460
H       -1.8634374601   -0.7675641412   -1.7664896815
H        1.1419887844   -1.1357313856    0.0289674092
H       -1.1847847478    0.7931224533    0.0167113634
H        0.6707060317    3.0650635531    0.0058712952
H        1.6272549233    2.4143883236    1.3611855107
H       -0.1382388678    2.2471432631    1.3525567259
H        2.2489225209    1.6532361115   -1.1977581251
20   
torsion grid (-30,)
C       -1.3934428094   -1.8040846584    0.1736747753
C       -0.5423584331   -1.1853264030    1.3703474362
C       -1.0211365207   -0.9750484295   -1.1368043930
C        0.4932943075   -0.4212758133    0.5574536735
C       -0.4062788676    0.2646719667   -0.4962105502
C        0.9003163992    0.9088777350   -0.0094780930
C        0.7532285083    2.2370469958    0.7024819114
O        2.0936132112    0.8001863658   -0.7537359046
H       -1.1623853591   -2.8664223505    0.0412481571
H       -2.4659437890   -1.7381291168    0.3854318414
H       -1.1583465199   -0.5299902917    1.9933971071
H       -0.1188907149   -1.9646450994    2.0130911884
H       -0.3079434329   -1.5225256626   -1.7588582741
H       -1.9077859871   -0.7629439267   -1.7443735349
H        1.1160072365   -1.1443813481    0.0248522044
H       -1.2034996079    0.7917676379    0.0351056532
H        0.6712020030    3.0577207748   -0.0212379453
H        1.6282163801    2.4104964157    1.3380711401
H       -0.1364365591    2.2566565199    1.3356042429
H        2.3394005948    1.6895199248   -1.0535629497
20   
torsion grid (-15,)
C       -1.3822659305   -1.8085538404    0.1696689038
C       -0.5294626068   -1.1864773211    1.3633942382
C       -1.0235455947   -0.9738175633   -1.1408501327
C        0.4994524591   -0.4124241549    0.5491768762
C       -0.4115151449    0.2654785281   -0.4984596063
C        0.8899124842    0.9227807338   -0.0364642205
C        0.7475044355    2.2501322465    0.6770762087
O        2.0642393621    0.8215593306   -0.8121596087
H       -1.1429208084   -2.8685194375    0.0332398643
H       -2.4542562806   -1.7523798273    0.3869730753
H       -1.1471739168   -0.5368493809    1.9908758581
H       -0.0985520693   -1.9646421942    2.0026592746
H       -0.3111088598   -1.5149665196   -1.7690978425
H       -1.9151950660   -0.7644531613   -1.7419902160
H        1.1250633742   -1.1310454262    0.0135898000
H       -1.2083058546    0.7880253390    0.0380550700
H        0.6448602229    3.0698517867   -0.0447237983
H        1.6312233026    2.4310307881    1.2995436788
H       -0.1288848087    2.2605602708    1.3284525452
H        2.4326162083    1.7109558723   -0.9234124815
20   
torsion grid (0,)
C       -1.3936774095   -1.8115464645    0.1774583764
C       -0.5373452781   -1.1882950078    1.3681274426
C       -1.0424642832   -0.9752925601   -1.1338758046
C        0.4908367715   -0.4123630561    0.5527668567
C       -0.4275746837    0.2614379690   -0.4908042641
C        0.8698169690    0.9260953835   -0.0573169459
C        0.7468265965    2.2511602632    0.6630373543
O        2.0185772162    0.8252284126   -0.8696255550
H       -1.1514174947   -2.8705083183    0.0387017669
H       -2.4650966187   -1.7592615018    0.3987864909
H       -1.1543346475   -0.5397863038    1.9976778068
H       -0.1042956212   -1.9662101834    2.0062741053
H       -0.3326163732   -1.5144693576   -1.7664653817
H       -1.9371586138   -0.7650838083   -1.7301910829
H        1.1152123752   -1.1306606720    0.0154650241
H       -1.2210944168    0.7842345622    0.0501661266
H        0.6317522494    3.0745438581   -0.0521094982
H        1.6430987430    2.4271008641    1.2698546412
H       -0.1137442337    2.2580678461    1.3352924358
H        2.5168076570    1.6530820733   -0.8018814580
20   
torsion grid (15,)
C       -1.4023706110   -1.8154139932    0.1845974268
C       -0.5440553298   -1.1907748857    1.3733111196
C       -1.0566305530   -0.9779314240   -1.1270651140
C        0.4845187131   -0.4135372951    0.5580789228
C       -0.4406268396    0.2567452255   -0.4821726218
C        0.8505385776    0.9298644111   -0.0733033894
C        0.7440821988    2.2510833261    0.6562297329
O        1.9728518230    0.8339789769   -0.9189563278
H       -1.1575313118   -2.8734979843    0.0439725360
H       -2.4734533587   -1.7664445056    0.4085382373
H       -1.1611408454   -0.5435117960    2.0041936663
H       -0.1096734057   -1.9684381570    2.0108784445
H       -0.3480858689   -1.5148067239   -1.7627827422
H       -1.9534112017   -0.7670035732   -1.7199699193
H        1.1078263526   -1.1308133132    0.0186070402
H       -1.2322367668    0.7788304616    0.0619886969
H        0.6172586889    3.0793196507   -0.0505889815
H        1.6527905707    2.4224356431    1.2464932242
H       -0.1005300967    2.2521834696    1.3487011725
H        2.5903963628    1.5452727419   -0.6914064176
20   
torsion grid (30,)
C       -1.4206745279   -1.8254246714    0.1928465534
C       -0.5620862072   -1.2044009343    1.3834967596
C       -1.0780721785   -0.9813545867   -1.1152882010
C        0.4671214461   -0.4227680189    0.5720521910
C       -0.4627572105    0.2493330615   -0.4632772170
C        0.8237243639    0.9264617805   -0.0691790193
C        0.7307533785    2.2458045611    0.6654732311
O        1.9239278659    0.8364956167   -0.9407856127
H       -1.1735323077   -2.8821891379    0.0466169192
H       -2.4916471115   -1.7801639117    0.4182277367
H       -1.1797124731   -0.5611312487    2.0179372451
H       -0.1264555043   -1.9843819171    2.0173454874
H       -0.3692101151   -1.5133288325   -1.7545249107
H       -1.9758423199   -0.7681340492   -1.7058230915
H        1.0885393091   -1.1373543351    0.0272496418
H       -1.2531970369    0.7684972923    0.0850296283
H        0.6001810078    3.0751127183   -0.0386467642
H        1.6478867172    2.4139545940    1.2438689551
H       -0.1040469873    2.2471144600    1.3701506934
H        2.6406696902    1.3833633435   -0.5822346030
20   
torsion grid (45,)
C       -1.4177661964   -1.8264582762    0.1939827022
C       -0.5559344533   -1.2038970676    1.3816538471
C       -1.0843471407   -0.9785578640   -1.1139235853
C        0.4675882015   -0.4184617864    0.5669978025
C       -0.4722957832    0.2537038853   -0.4616767576
C        0.8102875597    0.9357832847   -0.0732964837
C        0.7126773941    2.2533780978    0.6647762359
O        1.8955705292    0.8623150671   -0.9633007748
H       -1.1675597438   -2.8820391585    0.0444062708
H       -2.4877791383   -1.7854977428    0.4246756657
H       -1.1728112773   -0.5635957063    2.0197031730
H       -0.1150184713   -1.9832173039    2.0126603694
H       -0.3759375556   -1.5055399102   -1.7576644132
H       -1.9856834179   -0.7675946430   -1.6997459622
H        1.0851950943   -1.1303027260    0.0145324974
H       -1.2627262644    0.7669966357    0.0918182681
H        0.5657782660    3.0799877422   -0.0385131576
H        1.6364835728    2.4327463436    1.2288697657
H       -0.1119665052    2.2452837926    1.3817005575
H        2.6793009918    1.2136728334   -0.5094984122
20   
torsion grid (60,)
C       -1.4113758313   -1.8261485858    0.1937691157
C       -0.5455994266   -1.2031489116    1.3785386073
C       -1.0884497405   -0.9728677378   -1.1134046371
C        0.4698356859   -0.4123643897    0.5594640971
C       -0.4797878794    0.2610466160   -0.4611187191
C        0.8019707884    0.9452240654   -0.0723487590
C        0.6941743742    2.2638906158    0.6634392803
O        1.8814609131    0.8877365763   -0.9718846324
H       -1.1580321463   -2.8803949255    0.0399040205
H       -2.4801328663   -1.7899465409    0.4308558470
H       -1.1610066249   -0.5668681382    2.0218154473
H       -0.0977259443   -1.9822655787    2.0048627103
H       -0.3809316020   -1.4942735263   -1.7626332867
H       -1.9939075303   -0.7643621534   -1.6936196459
H        1.0826491592   -1.1214071883   -0.0020720198
H       -1.2703070930    0.7675212832    0.0982276308
H        0.5362875640    3.0832322441   -0.0452732377
H        1.6200451484    2.4570237822    1.2187583587
H       -0.1270387951    2.2515525951    1.3846718876
H        2.6987582505    1.0208301853   -0.4628369628
20   
torsion grid (75,)
C       -1.3927582604   -1.8198924147    0.1904310870
C       -0.5268603514   -1.1959151543    1.3749102455
C       -1.0800643561   -0.9587557564   -1.1142847276
C        0.4792382389   -0.3947068680    0.5547217908
C       -0.4793595475    0.2772168798   -0.4589603640
C        0.7995562692    0.9672400493   -0.0654679048
C        0.6744885745    2.2858654351    0.6684365070
O        1.8843000653    0.9303552706   -0.9635491494
H       -1.1336585033   -2.8720360317    0.0316311550
H       -2.4607181905   -1.7910502088    0.4318549230
H       -1.1437972634   -0.5667136396    2.0234384656
H       -0.0705409256   -1.9744065721    1.9958600566
H       -0.3705852350   -1.4720773681   -1.7679356000
H       -1.9888341549   -0.7547406375   -1.6907487166
H        1.0898998872   -1.0994717504   -0.0152081032
H       -1.2726139141    0.7744434556    0.1047273769
H        0.5099586376    3.0991137995   -0.0453974515
H        1.5982285214    2.4916407455    1.2215163668
H       -0.1493382275    2.2682192801    1.3868828535
H        2.6973304775    0.8350218052   -0.4399566208
20   
torsion grid (90,)
C       -1.4008706000   -1.8263933937    0.1954667003
C       -0.5273338803   -1.2013640815    1.3736693091
C       -1.0959665493   -0.9669187911   -1.1124346024
C        0.4721766865   -0.4018832201    0.5446383508
C       -0.4912915464    0.2712712934   -0.4641820625
C        0.7928656542    0.9584609835   -0.0653812467
C        0.6556498817    2.2784103865    0.6645872932
O        1.8886524791    0.9387931441   -0.9542559615
H       -1.1434390369   -2.8790496512    0.0370579097
H       -2.4671507893   -1.7963579567    0.4437025128
H       -1.1388022063   -0.5703868915    2.0253716134
H       -0.0667076664   -1.9791747710    1.9922891423
H       -0.3920893088   -1.4823496133   -1.7707609089
H       -2.0085881126   -0.7627140945   -1.6825157670
H        1.0736017688   -1.1113083915   -0.0305960526
H       -1.2823641365    0.7676196890    0.1031908949
H        0.4978804483    3.0868381741   -0.0559362167
H        1.5739736257    2.4881046299    1.2240477654
H       -0.1773422220    2.2630057733    1.3724724955
H        2.6625614497    0.6168884024   -0.4646831986
20   
torsion grid (105,)
C       -1.3844795264   -1.8189826426    0.1945912030
C       -0.5118537853   -1.1901529225    1.3712301461
C       -1.0851058697   -0.9589289561   -1.1143554363
C        0.4799090822   -0.3848442907    0.5391998432
C       -0.4852146023    0.2838241812   -0.4692426317
C        0.7986594673    0.9771956719   -0.0578818743
C        0.6414434633    2.2924475000    0.6763760120
O        1.9156915189    0.9887897646   -0.9224539510
H       -1.1239861546   -2.8709954682    0.0366224127
H       -2.4503155138   -1.7922023016    0.4447349481
H       -1.1244524020   -0.5609741466    2.0234760054
H       -0.0464531282   -1.9651552263    1.9898350883
H       -0.3803810725   -1.4727908366   -1.7734811761
H       -1.9990691512   -0.7599223619   -1.6839868479
H        1.0813287986   -1.0947775464   -0.0373596624
H       -1.2792973217    0.7761645303    0.0973487944
H        0.4956700010    3.1035258197   -0.0436830337
H        1.5495045085    2.5005787074    1.2517176903
H       -0.2063221622    2.2721459338    1.3661509710
H        2.6194175841    0.4611322449   -0.5151328160
20   
torsion grid (120,)
C       -1.3635227330   -1.8120120770    0.1886161838
C       -0.4953515580   -1.1755602048    1.3641890094
C       -1.0675556123   -0.9549909145   -1.1233725365
C        0.4889427457   -0.3649225626    0.5289607774
C       -0.4737523276    0.2948056773   -0.4841174063
C        0.8098111044    0.9971680581   -0.0588094320
C        0.6367708285    2.3065527450    0.6809956973
O        1.9500749405    1.0401126673   -0.8904273207
H       -1.0982417573   -2.8634931218    0.0350067024
H       -2.4296745175   -1.7889780037    0.4373737703
H       -1.1113296856   -0.5476219789    2.0143064809
H       -0.0250537892   -1.9457757514    1.9850584966
H       -0.3612146973   -1.4695461548   -1.7807089060
H       -1.9820632425   -0.7628720486   -1.6943929696
H        1.0948172611   -1.0776544619   -0.0418947905
H       -1.2717904244    0.7848943192    0.0787048494
H        0.5181621280    3.1245631116   -0.0362929999
H        1.5291677521    2.5019822018    1.2835526420
H       -0.2329732728    2.2861750355    1.3423659212
H        2.5619515902    0.3421545332   -0.6144840170
20   
torsion grid (135,)
C       -1.3523619887   -1.8083046932    0.1865140061
C       -0.4934052230   -1.1650773259    1.3646410590
C       -1.0506261326   -0.9569233956   -1.1277730737
C        0.4916175142   -0.3515615260    0.5326218529
C       -0.4627987403    0.2980283188   -0.4915969928
C        0.8170319285    1.0102078842   -0.0539087324
C        0.6316561985    2.3135845840    0.6919571376
O        1.9774481134    1.0782484157   -0.8501319207
H       -1.0839200736   -2.8599529898    0.0397324295
H       -2.4201340186   -1.7863329220    0.4279753185
H       -1.1150357782   -0.5368135979    2.0090329866
H       -0.0237732227   -1.9312574571    1.9909625109
H       -0.3403060008   -1.4749636382   -1.7785362419
H       -1.9617731965   -0.7697472565   -1.7056685400
H        1.1070779690   -1.0675037053   -0.0263052298
H       -1.2668992765    0.7889417575    0.0617622937
H        0.5239181790    3.1386943445   -0.0190661014
H        1.5148889422    2.5012935993    1.3093980857
H       -0.2490387437    2.2861708285    1.3378138912
H        2.4814266093    0.2581083013   -0.7441324813
20   
torsion grid (150,)
C       -1.3509752269   -1.8081826120    0.1891744869
C       -0.5052034988   -1.1603049360    1.3736066598
C       -1.0359081480   -0.9623203311   -1.1250792071
C        0.4876108543   -0.3473974675    0.5502372309
C       -0.4535624178    0.2961930952   -0.4892205267
C        0.8221227350    1.0127618786   -0.0379040534
C        0.6315816003    2.3129993035    0.7103354145
O        1.9974230185    1.0933857045   -0.8040941067
H       -1.0805654499   -2.8602282254    0.0492294935
H       -2.4213690441   -1.7857173090    0.4184724970
H       -1.1343950809   -0.5299435759    2.0086138147
H       -0.0417851555   -1.9233990644    2.0081623895
H       -0.3200190293   -1.4847850350   -1.7666148266
H       -1.9407253423   -0.7779660348   -1.7137877695
H        1.1146271264   -1.0667022135    0.0071378015
H       -1.2632554680    0.7907727318    0.0525815719
H        0.5262764890    3.1425793360    0.0041531468
H        1.5112406675    2.4959262607    1.3338177512
H       -0.2527215578    2.2791487263    1.3504287668
H        2.3796404947    0.2067770218   -0.8905666001
20   
torsion grid (165,)
C       -1.3197008802   -1.8046472108    0.1731672361
C       -0.4954036290   -1.1508049456    1.3689557107
C       -0.9872567488   -0.9611651690   -1.1382044318
C        0.5078924070   -0.3346894779    0.5607534479
C       -0.4185663413    0.3007592648   -0.4962771313
C        0.8476318601    1.0252491325   -0.0308381936
C        0.6463103272    2.3286357704    0.7068852637
O        2.0335191962    1.1102304470   -0.7752047511
H       -1.0432914825   -2.8559918708    0.0401867599
H       -2.3938200944   -1.7855158989    0.3846643387
H       -1.1373034071   -0.5219860895    1.9927656664
H       -0.0390071075   -1.9107229312    2.0122771287
H       -0.2604758666   -1.4845950392   -1.7669686080
H       -1.8831233286   -0.7814585356   -1.7419023355
H        1.1524254079   -1.0514166652    0.0352155422
H       -1.2381784638    0.7954065038    0.0302880874
H        0.5239517923    3.1509608257   -0.0048794531
H        1.5274931602    2.5278530988    1.3231923279
H       -0.2320487103    2.2854756484    1.3542868232
H        2.2927852050    0.2181171359   -1.0549894739
20   
torsion grid (180,)
C       -1.3112459778   -1.8038345057    0.1713342721
C       -0.5057666439   -1.1470014526    1.3779511888
C       -0.9559825503   -0.9654014813   -1.1370940011
C        0.5135923123   -0.3356086905    0.5849476946
C       -0.3954156956    0.2975180544   -0.4894302873
C        0.8635756202    1.0220943156   -0.0114369853
C        0.6589319499    2.3307910986    0.7142374932
O        2.0572012099    1.0983990024   -0.7433928079
H       -1.0340635368   -2.8558681016    0.0459669625
H       -2.3888581055   -1.7826170238    0.3642133170
H       -1.1573739186   -0.5154399822    1.9889144099
H       -0.0616256390   -1.9055947860    2.0312474067
H       -0.2204555859   -1.4937010359   -1.7518190688
H       -1.8412192829   -0.7861374676   -1.7565286931
H        1.1706400473   -1.0516661405    0.0760012089
H       -1.2223674108    0.7963874608    0.0214011594
H        0.5186268408    3.1446475617   -0.0037447755
H        1.5457888484    2.5449767971    1.3175856160
H       -0.2091034435    2.2830338554    1.3751546884
H        2.1897599848    0.2579743189   -1.2101416815
