21   
torsion grid (-165,)
C        0.3903664816   -0.5724013030    1.4430627902
C       -0.2270219538   -1.3104569538    0.2481512227
C        0.3406515619   -2.7310173320    0.1254585333
C       -0.0202791934   -0.5288299432   -1.0686931933
C       -0.7130051331    0.8065703192   -1.0964780874
C       -0.1092297948    1.9928663321   -1.2416601126
C       -0.8092509287    3.3259334140   -1.2617067599
H       -0.0200955781    0.4365699913    1.5463678085
H        0.2076954032   -1.1139172655    2.3779816280
H        1.4767544400   -0.4781239618    1.3187861536
H       -1.3099970344   -1.3916469032    0.4201174067
H       -0.1269538358   -3.2791140295   -0.7004388513
H        0.1778996144   -3.3044566983    1.0448717919
H        1.4213837693   -2.7037609942   -0.0615623130
H        1.0551789241   -0.3925917895   -1.2423662379
H       -0.3962459444   -1.1455530171   -1.8974373931
H       -1.7994535135    0.7834345970   -0.9772578022
H        0.9785745058    2.0146231154   -1.3333143669
H       -1.8410529549    3.2422377440   -0.9062199036
H       -0.8248837292    3.7567680320   -2.2711017548
H       -0.2935855093    4.0484334788   -0.6175555872
21   
torsion grid (-150,)
C        0.3670667620   -0.5612431230    1.4848913739
C       -0.2159858667   -1.2945736448    0.2700163332
C        0.3675234225   -2.7088202515    0.1484998646
C        0.0134864852   -0.5000489447   -1.0353360097
C       -0.6880411121    0.8305407029   -1.0669073338
C       -0.0892293849    2.0221172528   -1.1873251592
C       -0.8024432556    3.3518515830   -1.2108978220
H       -0.0562595359    0.4423723120    1.5883548521
H        0.1698023167   -1.1134367390    2.4105545586
H        1.4548328063   -0.4542782639    1.3854304974
H       -1.3018134918   -1.3870953885    0.4164209594
H       -0.0753482694   -3.2537499766   -0.6929838990
H        0.1883635956   -3.2918606144    1.0587754558
H        1.4520721254   -2.6701505055   -0.0125924350
H        1.0913927745   -0.3545134656   -1.1846912136
H       -0.3399213549   -1.1124790554   -1.8771205692
H       -1.7769382860    0.7983242696   -0.9728242958
H        1.0004309933    2.0502342506   -1.2437581463
H       -1.7424596048    3.3134040258   -0.6512472686
H       -1.0229936940    3.6762704469   -2.2357115948
H       -0.1847986067    4.1340983482   -0.7558684296
21   
torsion grid (-135,)
C        0.3861212260   -0.6039237235    1.6579340550
C       -0.1068575884   -1.3597866867    0.4172671630
C        0.5371348364   -2.7499777105    0.3277033587
C        0.1555165817   -0.5570753626   -0.8768863843
C       -0.5945384246    0.7452306890   -0.9458481445
C       -0.0365564348    1.9589831057   -1.0368821692
C       -0.8028892717    3.2617528481   -1.0994501099
H       -0.0807948948    0.3823268616    1.7382518793
H        0.1651432747   -1.1633236502    2.5738648931
H        1.4724116879   -0.4541910403    1.6121244048
H       -1.1941170892   -1.4950086750    0.5100175074
H        0.1584255131   -3.3119543230   -0.5336554458
H        0.3360010832   -3.3395865710    1.2291153704
H        1.6259868201   -2.6686226554    0.2206121204
H        1.2329773617   -0.3693990043   -0.9731413573
H       -0.1317381930   -1.1831702389   -1.7336851193
H       -1.6849409736    0.6702848413   -0.9069291281
H        1.0524051137    2.0264077749   -1.0449678683
H       -1.6246515383    3.2805483289   -0.3757610623
H       -1.2257441858    3.4370350243   -2.0960299565
H       -0.1520427902    4.1118216468   -0.8722559070
21   
torsion grid (-120,)
C        0.3501675526   -0.6306801406    1.6132819781
C       -0.1350371346   -1.3659054743    0.3572502968
C        0.4968708190   -2.7609407600    0.2574415830
C        0.1504160011   -0.5491857198   -0.9233336365
C       -0.5894511330    0.7592000444   -0.9859465512
C       -0.0215485736    1.9703139367   -1.0444751382
C       -0.7796676928    3.2800954205   -1.0990876514
H       -0.1073364025    0.3594233029    1.7000228018
H        0.1117615900   -1.1989144300    2.5193514136
H        1.4384484263   -0.4919533662    1.5829056821
H       -1.2245454205   -1.4918693949    0.4353794637
H        0.1222580691   -3.3087022143   -0.6147898124
H        0.2804964262   -3.3595923024    1.1493164299
H        1.5875283687   -2.6885865897    0.1630168741
H        1.2303635595   -0.3677812621   -1.0021720096
H       -0.1294049007   -1.1627331123   -1.7915657316
H       -1.6809645526    0.6909874290   -0.9689106237
H        1.0677996075    2.0281174659   -1.0530331146
H       -1.4175741405    3.4128410085   -0.2176720113
H       -1.4272426544    3.3346473848   -1.9815045871
H       -0.0971797509    4.1336787443   -1.1405917255
21   
torsion grid (-105,)
C        0.3309478955   -0.6189908171    1.7235016203
C       -0.0747442581   -1.3795237747    0.4544103677
C        0.6136265614   -2.7497200993    0.3901935866
C        0.2307628072   -0.5599187786   -0.8197994698
C       -0.5545858018    0.7192404034   -0.9213332682
C       -0.0311582481    1.9511852263   -0.9553998750
C       -0.8334447298    3.2303891004   -1.0465974509
H       -0.1690333299    0.3522011645    1.7859079574
H        0.0802012454   -1.1918946448    2.6232788605
H        1.4131243266   -0.4365561547    1.7346532708
H       -1.1608867720   -1.5469307770    0.4897241226
H        0.2969616053   -3.3158898275   -0.4931730182
H        0.3832218991   -3.3517182124    1.2762818944
H        1.7037121648   -2.6359493194    0.3406609438
H        1.3054681966   -0.3384942626   -0.8565948589
H        0.0088714975   -1.1885829651   -1.6938739650
H       -1.6422349903    0.6097233289   -0.9548889437
H        1.0552995317    2.0500544118   -0.9364273440
H       -1.2923484546    3.4852016142   -0.0830678302
H       -1.6495053332    3.1382646496   -1.7713925974
H       -0.2101285284    4.0759780711   -1.3509591613
21   
torsion grid (-90,)
C        0.3011828661   -0.6108694942    1.7813621210
C       -0.0549907879   -1.3806567530    0.5030574571
C        0.6599082370   -2.7380377857    0.4606666808
C        0.2708945896   -0.5575317588   -0.7639142367
C       -0.5360834128    0.7058803603   -0.8907724966
C       -0.0368776821    1.9482519271   -0.9071340006
C       -0.8570268579    3.2099058771   -1.0222364217
H       -0.2172441273    0.3515210060    1.8273012781
H        0.0349260471   -1.1864149160    2.6749702412
H        1.3793016664   -0.4096790911    1.8228736388
H       -1.1384410892   -1.5679053714    0.5083349897
H        0.3766831157   -3.3121354358   -0.4289103465
H        0.4178181643   -3.3420315600    1.3422755739
H        1.7486353982   -2.6042624455    0.4389626100
H        1.3417739630   -0.3156846513   -0.7704421436
H        0.0860305998   -1.1918132304   -1.6424724343
H       -1.6195178340    0.5753639964   -0.9592295790
H        1.0467837603    2.0707723259   -0.8613808513
H       -1.1234171073    3.6035089939   -0.0324258863
H       -1.7971316139    3.0237779432   -1.5520366764
H       -0.3157746579    3.9965333053   -1.5573027732
21   
torsion grid (-75,)
C        0.2866512899   -0.6702200176    1.6743100811
C       -0.0770648073   -1.4247208527    0.3889818539
C        0.6161619591   -2.7930462808    0.3390609173
C        0.2665200040   -0.5975994953   -0.8705093576
C       -0.5184238661    0.6804761522   -0.9896300419
C        0.0020330942    1.9141406889   -1.0017501092
C       -0.7918849518    3.1892170336   -1.1105867694
H       -0.2175161327    0.2994246819    1.7261515086
H        0.0089898491   -1.2485718070    2.5626189897
H        1.3675467498   -0.4856321873    1.7206032542
H       -1.1633863264   -1.5946230522    0.3891356276
H        0.3283302125   -3.3552639554   -0.5566096342
H        0.3598289020   -3.4001795612    1.2144577800
H        1.7069935911   -2.6766550489    0.3239229755
H        1.3414620515   -0.3744732599   -0.8726216783
H        0.0730368496   -1.2215016607   -1.7546261086
H       -1.6038926277    0.5697121052   -1.0572359522
H        1.0873855392    2.0204998444   -0.9476944914
H       -0.8301510686    3.7157106208   -0.1476847698
H       -1.8247891345    2.9887250968   -1.4130691940
H       -0.3495141652    3.8766895216   -1.8404452142
21   
torsion grid (-60,)
C        0.2629217406   -0.6921122582    1.6077750682
C       -0.0993319698   -1.4334433984    0.3143884340
C        0.5826401691   -2.8071484101    0.2578156401
C        0.2586725428   -0.5993580046   -0.9363493766
C       -0.5147278877    0.6863169889   -1.0497048647
C        0.0167406867    1.9152974261   -1.0576380691
C       -0.7629686942    3.1976722684   -1.1638722972
H       -0.2327483789    0.2816847650    1.6637723777
H       -0.0257048126   -1.2746206697    2.4898514988
H        1.3451527202   -0.5178454746    1.6623865064
H       -1.1870325152   -1.5941491997    0.3067356848
H        0.2952218893   -3.3600289726   -0.6437847587
H        0.3162303766   -3.4188104572    1.1270303259
H        1.6744845399   -2.6998799214    0.2497440381
H        1.3354966560   -0.3855420275   -0.9308595453
H        0.0650834767   -1.2144335310   -1.8266331403
H       -1.6010285893    0.5858132919   -1.1186668868
H        1.1017125542    2.0138417706   -0.9824247006
H       -0.5960522440    3.8358423624   -0.2866771205
H       -1.8377316325    3.0072909287   -1.2449412093
H       -0.4531196264    3.7790321394   -2.0414202261
21   
torsion grid (-45,)
C        0.2221296700   -0.6843708467    1.5406631656
C       -0.1380525939   -1.4118491724    0.2388537492
C        0.5360656447   -2.7890139448    0.1731799561
C        0.2310298045   -0.5685787734   -1.0023653132
C       -0.5339411057    0.7227991968   -1.1077951560
C        0.0058192997    1.9481972026   -1.1097939879
C       -0.7662117417    3.2366386773   -1.2119763640
H       -0.2673208252    0.2922212439    1.6025458511
H       -0.0750771625   -1.2726399002    2.4160444081
H        1.3051934990   -0.5178498877    1.6025624014
H       -1.2266380644   -1.5660269429    0.2243954089
H        0.2495835181   -3.3321697018   -0.7346136549
H        0.2620526562   -3.4067875022    1.0356836540
H        1.6285528231   -2.6881726385    0.1710583497
H        1.3091054906   -0.3613591738   -0.9901242223
H        0.0381457429   -1.1743024029   -1.8992414337
H       -1.6208756495    0.6295935781   -1.1783900450
H        1.0895066976    2.0391669285   -1.0121521226
H       -0.4186405366    3.9666561851   -0.4713687720
H       -1.8396376372    3.0779352466   -1.0708351252
H       -0.6217018645    3.7041970901   -2.1952274544
21   
torsion grid (-30,)
C        0.1905207500   -0.6851543957    1.4826084276
C       -0.1716167728   -1.3913364880    0.1696702276
C        0.4879343642   -2.7747191215    0.0885571731
C        0.2119379074   -0.5355695256   -1.0585123305
C       -0.5385348300    0.7652631770   -1.1496903275
C        0.0152176348    1.9843483112   -1.1381373032
C       -0.7465574418    3.2833944915   -1.2274285510
H       -0.2890292528    0.2955839579    1.5556197414
H       -0.1163655674   -1.2819997091    2.3487977274
H        1.2749552308   -0.5306065773    1.5511212885
H       -1.2617312887   -1.5335320042    0.1484617042
H        0.2001608740   -3.3023867675   -0.8279231198
H        0.2029575899   -3.4011137772    0.9412333722
H        1.5814412081   -2.6857207913    0.0931189184
H        1.2920759631   -0.3398522744   -1.0390252509
H        0.0167507828   -1.1272837909   -1.9642471009
H       -1.6265757608    0.6844461854   -1.2219692121
H        1.0984368851    2.0599061731   -1.0273401896
H       -0.2421215658    4.0792916965   -0.6692868280
H       -1.7702033530    3.1828499462   -0.8541130032
H       -0.8058200004    3.6323747705   -2.2672861723
21   
torsion grid (-15,)
C        0.1559790680   -0.6858777632    1.4442890472
C       -0.1950872387   -1.3775912198    0.1206935682
C        0.4523392180   -2.7665347657    0.0367978784
C        0.2132189697   -0.5153715734   -1.0949918153
C       -0.5238657319    0.7929957744   -1.1859400671
C        0.0411037069    2.0065158848   -1.1541500580
C       -0.7122128372    3.3149994532   -1.2425279641
H       -0.3144220891    0.2991751626    1.5187932843
H       -0.1689720091   -1.2865350069    2.3012065382
H        1.2408567282   -0.5430060401    1.5290150272
H       -1.2861165190   -1.5091313605    0.0836345648
H        0.1716745550   -3.2839427857   -0.8876987038
H        0.1502303614   -3.3970819096    0.8804690716
H        1.5464812112   -2.6880440457    0.0564121114
H        1.2946576674   -0.3293903409   -1.0587416985
H        0.0254847196   -1.0980932854   -2.0081256015
H       -1.6115747430    0.7223864035   -1.2755391273
H        1.1236447214    2.0680834154   -1.0325491287
H       -0.0935999410    4.1538771790   -0.9098535760
H       -1.6273919255    3.3001169688   -0.6419122880
H       -1.0033794261    3.5350300877   -2.2775989307
21   
torsion grid (0,)
C        0.1208126373   -0.7173463987    1.3594197894
C       -0.2298911244   -1.3812100837    0.0215548578
C        0.3999123692   -2.7769174482   -0.0821120790
C        0.1984105938   -0.5035959416   -1.1762540877
C       -0.5194019998    0.8165192241   -1.2486387179
C        0.0616221216    2.0209495248   -1.1816436999
C       -0.6751587210    3.3423138311   -1.2479638097
H       -0.3382503107    0.2718098176    1.4486003459
H       -0.2168255307   -1.3292078609    2.2034089900
H        1.2067181787   -0.5889509821    1.4534761944
H       -1.3222447033   -1.4976997138   -0.0253330435
H        0.1197368167   -3.2741353067   -1.0177648281
H        0.0829485825   -3.4182060054    0.7479006395
H        1.4947966640   -2.7132615245   -0.0527965163
H        1.2820685187   -0.3335561313   -1.1295271583
H        0.0083550532   -1.0676242876   -2.1005480226
H       -1.6068847546    0.7628413253   -1.3527831704
H        1.1459537371    2.0638217194   -1.0699233233
H        0.0149192950    4.1872882716   -1.1710569288
H       -1.4035393852    3.4382452763   -0.4345233266
H       -1.2231901617    3.4513182041   -2.1907242705
21   
torsion grid (15,)
C        0.1017774004   -0.7428206883    1.2998129151
C       -0.2290106183   -1.3939649578   -0.0493300050
C        0.3950662619   -2.7922220478   -0.1533296039
C        0.2249451501   -0.5091008287   -1.2323781744
C       -0.4856816946    0.8148013168   -1.3075553038
C        0.0979310289    2.0160275924   -1.2109544766
C       -0.6298427822    3.3402459512   -1.2771709911
H       -0.3540488785    0.2477920686    1.3892754304
H       -0.2533722809   -1.3598838491    2.1327554407
H        1.1865033217   -0.6206274495    1.4136319030
H       -1.3209727124   -1.5040682729   -0.1162024678
H        0.1287702272   -3.2803019331   -1.0978004801
H        0.0600930397   -3.4384484147    0.6657100970
H        1.4895888804   -2.7348054261   -0.1042494399
H        1.3082889747   -0.3444886582   -1.1641370261
H        0.0492453149   -1.0651026683   -2.1642845140
H       -1.5704374186    0.7671018145   -1.4382645080
H        1.1824004376    2.0545622514   -1.0972847545
H        0.0624342591    4.1666427690   -1.4637829892
H       -1.1312211818    3.5635618664   -0.3265066604
H       -1.3952133559    3.3468920798   -2.0596728493
21   
torsion grid (30,)
C        0.0641775659   -0.7314648126    1.3626713005
C       -0.2133462796   -1.3956673673    0.0078908204
C        0.4377508880   -2.7833417446   -0.0684279557
C        0.2616650314   -0.5094747263   -1.1658576688
C       -0.4707429832    0.8004568700   -1.2721805593
C        0.0861706528    2.0132044501   -1.1621544263
C       -0.6589697862    3.3214156021   -1.2586165093
H       -0.4100769259    0.2521242918    1.4314158698
H       -0.3073387650   -1.3493034683    2.1878597838
H        1.1426954338   -0.5912797271    1.5099255400
H       -1.3006403668   -1.5251850357   -0.0919826250
H        0.2082108749   -3.2816612667   -1.0171884657
H        0.0898229822   -3.4304399465    0.7445025364
H        1.5291661663   -2.7064187276    0.0127264103
H        1.3390884112   -0.3245796823   -1.0642502215
H        0.1259060203   -1.0739313858   -2.0993108456
H       -1.5491661185    0.7321256565   -1.4390124218
H        1.1664506362    2.0757197745   -1.0191708023
H       -0.0294152957    4.1075894060   -1.6885983079
H       -0.9522404557    3.6787449426   -0.2619450764
H       -1.5697219549    3.2297840833   -1.8579189622
21   
torsion grid (45,)
C        0.0490522208   -0.7663925158    1.2875568069
C       -0.2229259673   -1.4192459383   -0.0738560409
C        0.4181359028   -2.8113225480   -0.1546420458
C        0.2679297235   -0.5288462415   -1.2377717092
C       -0.4524640656    0.7881707333   -1.3395580680
C        0.1144156431    1.9955083321   -1.2213859513
C       -0.6145494194    3.3095085082   -1.3141173653
H       -0.4192668043    0.2197862023    1.3597904467
H       -0.3325280524   -1.3875359571    2.1056396333
H        1.1273804266   -0.6344500809    1.4436307780
H       -1.3103667964   -1.5397112999   -0.1830540844
H        0.1928439002   -3.3011030622   -1.1088547607
H        0.0583770576   -3.4614778161    0.6506606970
H        1.5093830931   -2.7434224621   -0.0637378806
H        1.3462562382   -0.3544261642   -1.1277420192
H        0.1335268774   -1.0851507002   -2.1762922483
H       -1.5305260764    0.7308181622   -1.5114278149
H        1.1932416315    2.0499943081   -1.0621689011
H       -0.0784275887    4.0167305330   -1.9578746613
H       -0.6875851913    3.7873033364   -0.3276823492
H       -1.6299848673    3.1832627228   -1.7016052326
21   
torsion grid (60,)
C        0.0325007906   -0.7809658111    1.1948673558
C       -0.2453759432   -1.4179667701   -0.1728518420
C        0.3775639291   -2.8175427718   -0.2650124822
C        0.2592268805   -0.5236973222   -1.3277712298
C       -0.4428307605    0.8040537397   -1.4179757175
C        0.1417984962    2.0025404063   -1.2965270994
C       -0.5672158584    3.3268969564   -1.3807177273
H       -0.4227159083    0.2107308394    1.2749863332
H       -0.3590241472   -1.4042064301    2.0066303199
H        1.1121885083   -0.6649306234    1.3542029742
H       -1.3340936613   -1.5232123354   -0.2850915738
H        0.1475576948   -3.2958334454   -1.2239215425
H        0.0079299028   -3.4700759631    0.5338673420
H        1.4694455469   -2.7647618695   -0.1717182972
H        1.3397870037   -0.3653880437   -1.2153840057
H        0.1182255865   -1.0692141315   -2.2716677637
H       -1.5222358254    0.7632562179   -1.5857008927
H        1.2189308377    2.0410084841   -1.1209214116
H       -0.1685270147    3.9388547196   -2.1997678680
H       -0.4330525836    3.9068152946   -0.4587136138
H       -1.6411283467    3.1964327574   -1.5468752778
21   
torsion grid (75,)
C       -0.0000586947   -0.7732508657    1.1429415118
C       -0.2703412095   -1.3970409442   -0.2323724375
C        0.3475296291   -2.7983238158   -0.3323045123
C        0.2464188939   -0.4945799404   -1.3753821666
C       -0.4503296445    0.8363439743   -1.4594593748
C        0.1389317326    2.0318413733   -1.3311489222
C       -0.5666309913    3.3597483076   -1.4133244894
H       -0.4510253942    0.2199845315    1.2280689590
H       -0.4008937747   -1.4015021248    1.9462543558
H        1.0789119133   -0.6639217958    1.3116176810
H       -1.3586227499   -1.4967741893   -0.3535919227
H        0.1224688483   -3.2672940998   -1.2969761945
H       -0.0304823417   -3.4562613658    0.4581780908
H        1.4389208185   -2.7508990768   -0.2307503956
H        1.3266323344   -0.3409422434   -1.2535295028
H        0.1110425862   -1.0313086866   -2.3251654265
H       -1.5294405407    0.8004105417   -1.6308315091
H        1.2120916010    2.0633223111   -1.1322433569
H       -0.3446246172    3.8696710417   -2.3599788699
H       -0.2568954878    4.0287929060   -0.6023606764
H       -1.6530179017    3.2356186400   -1.3577303366
21   
torsion grid (90,)
C        0.5449024220   -0.5639073281    1.1803308389
C       -0.3332484996   -1.2609524945    0.1331354537
C        0.0676306139   -2.7334439717   -0.0293756880
C       -0.2790373295   -0.5315174232   -1.2280523140
C       -0.8332535462    0.8666885671   -1.1894383627
C       -0.1501500320    1.9815750094   -1.4779966230
C       -0.7160987233    3.3798606833   -1.4336518874
H        0.2551641966    0.4827071984    1.3137516079
H        0.4733478662   -1.0657827316    2.1517655529
H        1.5983909621   -0.5803371316    0.8729826581
H       -1.3742359042   -1.2297937597    0.4858339108
H       -0.5826083987   -3.2487634020   -0.7454882904
H        0.0083350402   -3.2687628373    0.9248539900
H        1.0989560858   -2.8183731545   -0.3938571866
H        0.7590855216   -0.5091349153   -1.5846426133
H       -0.8487332851   -1.1237587074   -1.9583144389
H       -1.8809890647    0.9565852923   -0.8897309921
H        0.9053575538    1.8881391440   -1.7398970467
H       -1.1174035782    3.6793854456   -2.4105922418
H        0.0439146125    4.1139202991   -1.1477933485
H       -1.5420750098    3.4494659231   -0.7178637520
21   
torsion grid (105,)
C        0.5319864022   -0.5762898185    1.2347451025
C       -0.3025587383   -1.2858093426    0.1606289227
C        0.1309591884   -2.7497443550    0.0046333010
C       -0.2236795773   -0.5501923442   -1.1960803331
C       -0.8047084019    0.8372602067   -1.1688413739
C       -0.1332292675    1.9656416681   -1.4308084420
C       -0.7291826210    3.3555322058   -1.3957941871
H        0.2183702288    0.4639784588    1.3637260811
H        0.4428880200   -1.0835379790    2.2019323824
H        1.5938205625   -0.5709209052    0.9572076503
H       -1.3535530575   -1.2759089377    0.4836449384
H       -0.4884347762   -3.2744794075   -0.7316982986
H        0.0545329823   -3.2899215946    0.9548990798
H        1.1737679742   -2.8135312961   -0.3302831173
H        0.8235718815   -0.5067396289   -1.5228479341
H       -0.7611034027   -1.1504352903   -1.9440830714
H       -1.8628759919    0.9060047741   -0.9010169492
H        0.9292072443    1.8899020564   -1.6674957687
H       -1.3416752379    3.5522798278   -2.2843917971
H        0.0465945776    4.1251461778   -1.3501774140
H       -1.3824402865    3.4865349059   -0.5261530922
21   
torsion grid (120,)
C        0.4843205131   -0.5968607829    1.2030745734
C       -0.3409257769   -1.2900070740    0.1112285930
C        0.0819035435   -2.7564086678   -0.0508253231
C       -0.2360167578   -0.5438363662   -1.2380622889
C       -0.8079903891    0.8472671520   -1.2081633411
C       -0.1227332778    1.9737256587   -1.4410761980
C       -0.7105311275    3.3687306388   -1.3997544616
H        0.1786860121    0.4453267423    1.3356397564
H        0.3760977773   -1.1106984831    2.1648169735
H        1.5501385821   -0.5994579252    0.9412598116
H       -1.3963145769   -1.2733849024    0.4192533223
H       -0.5320219346   -3.2697258097   -0.7996689396
H       -0.0120707939   -3.3034790442    0.8939098669
H        1.1285525541   -2.8266781138   -0.3721887222
H        0.8166244534   -0.5045763476   -1.5476025378
H       -0.7656142253   -1.1343420090   -1.9992476907
H       -1.8711678451    0.9204302929   -0.9619008413
H        0.9388777958    1.8906761653   -1.6780977970
H       -1.5188866642    3.4873503583   -2.1301633613
H        0.0460022081    4.1264444608   -1.6225135675
H       -1.1266893338    3.6008589260   -0.4126511862
21   
torsion grid (135,)
C        0.4926252593   -0.5868293328    1.3176119962
C       -0.2594207833   -1.3157812510    0.1966033710
C        0.2318404738   -2.7628324381    0.0547921046
C       -0.1345350612   -0.5672081415   -1.1497585314
C       -0.7662571002    0.7981645720   -1.1456808863
C       -0.1198223225    1.9535851976   -1.3457267749
C       -0.7660597169    3.3213127537   -1.3300924865
H        0.1363954266    0.4407655665    1.4369642787
H        0.3710019926   -1.1050376545    2.2754000353
H        1.5666271444   -0.5422580060    1.0961483028
H       -1.3256398941   -1.3441766561    0.4637026871
H       -0.3294969446   -3.3024744590   -0.7164709205
H        0.1240869908   -3.3127808383    0.9963793026
H        1.2924171037   -2.7884036783   -0.2248645210
H        0.9267241178   -0.4833693285   -1.4182424560
H       -0.6087888991   -1.1806094124   -1.9290446248
H       -1.8414349749    0.8256641510   -0.9474980799
H        0.9499064063    1.9157382115   -1.5571443483
H       -1.7148029565    3.3252563279   -1.8767685414
H       -0.1184682262    4.0678552083   -1.8002601295
H       -0.9636218523    3.6647739285   -0.3072691368
21   
torsion grid (150,)
C        0.4755660050   -0.5741385956    1.3813832129
C       -0.2296956437   -1.3190289600    0.2406191154
C        0.2965971407   -2.7550187203    0.1127632504
C       -0.0845155018   -0.5678606578   -1.1022956348
C       -0.7439875615    0.7843785617   -1.1157615259
C       -0.1159905104    1.9535745462   -1.2935046261
C       -0.7866622481    3.3055458039   -1.2981842265
H        0.0933324683    0.4451253777    1.4911778114
H        0.3398110640   -1.0955311751    2.3355374286
H        1.5538882070   -0.5055867622    1.1888927086
H       -1.3019106452   -1.3706601843    0.4786237090
H       -0.2315177649   -3.3065208034   -0.6734330105
H        0.1750572901   -3.3074601988    1.0512060958
H        1.3647461958   -2.7574434160   -0.1377176323
H        0.9815716990   -0.4628109735   -1.3426152036
H       -0.5257410371   -1.1904930246   -1.8934939378
H       -1.8250780100    0.7898432049   -0.9524033684
H        0.9595967880    1.9403057984   -1.4786601143
H       -1.8273587106    3.2370020879   -1.6302935385
H       -0.2735147184    3.9940251790   -1.9786356894
H       -0.7700282647    3.7695908048   -0.3037586175
21   
torsion grid (165,)
C        0.4503804864   -0.5722403685    1.4128975580
C       -0.2217949864   -1.3188223414    0.2534104328
C        0.3224228158   -2.7485239842    0.1302157958
C       -0.0554045092   -0.5593628664   -1.0822804091
C       -0.7316431865    0.7845220716   -1.1041153822
C       -0.1155061451    1.9623257022   -1.2657814953
C       -0.7987992198    3.3041487738   -1.2796816187
H        0.0565587168    0.4431461236    1.5176493307
H        0.2973874293   -1.0985520710    2.3617200821
H        1.5322088578   -0.4935260479    1.2455363189
H       -1.2983394861   -1.3829485228    0.4676403718
H       -0.1838137415   -3.3021742007   -0.6687565939
H        0.1880104241   -3.3063452319    1.0637083937
H        1.3953594866   -2.7384306147   -0.0986874902
H        1.0144511746   -0.4400154677   -1.2978495085
H       -0.4705047437   -1.1834274440   -1.8863867596
H       -1.8153293673    0.7762467476   -0.9605790098
H        0.9652074191    1.9664274964   -1.4214723132
H       -1.8835200676    3.2007889601   -1.3822831980
H       -0.4432928241    3.9165796826   -2.1170433079
H       -0.5897831077    3.8703030709   -0.3626778130
21   
torsion grid (180,)
C        0.4099833005   -0.5893587412    1.3563250586
C       -0.2580373331   -1.3256123076    0.1878541546
C        0.2760983946   -2.7589412560    0.0628910416
C       -0.0744962598   -0.5615475939   -1.1428153067
C       -0.7375245612    0.7889816792   -1.1631837261
C       -0.1101685366    1.9607909590   -1.3250336672
C       -0.7782177515    3.3088383330   -1.3372549155
H        0.0220250000    0.4280756449    1.4631961617
H        0.2462342898   -1.1194296826    2.3012548211
H        1.4935755322   -0.5169285236    1.1977162698
H       -1.3368400823   -1.3822945251    0.3926772287
H       -0.2265296972   -3.3046391430   -0.7438003796
H        0.1280516810   -3.3202783840    0.9922024154
H        1.3512997394   -2.7562438459   -0.1553522593
H        0.9979480812   -0.4517542463   -1.3504388236
H       -0.4898202034   -1.1776087393   -1.9529895279
H       -1.8212966942    0.7912733571   -1.0205665833
H        0.9734446791    1.9569066076   -1.4602931733
H       -1.8599712032    3.2212320079   -1.1957279637
H       -0.6005183641    3.8308778807   -2.2859944615
H       -0.3817687767    3.9540106815   -0.5428408132
