24   
torsion grid (-165,)
C       -1.7138042397   -0.3109107409    0.9869100736
C       -0.1817478439   -0.3972294124    0.8637049676
C        0.4670015256    0.7205401175    1.6976131494
C        0.2901141108   -1.7651302939    1.3885197062
C        0.2555532545   -0.2745820985   -0.6235785334
C       -0.1714246685    0.9884045704   -1.3216912966
C        0.6592424843    1.9521042220   -1.7398885130
C        0.2378748711    3.2199460226   -2.4341238823
H       -2.2050559410   -1.0635161764    0.3584746616
H       -2.0283271643   -0.4841234544    2.0224249549
H       -2.0878948405    0.6740717544    0.6900185556
H        1.5608938517    0.6675791608    1.6429312196
H        0.1634825021    1.7095408062    1.3408909548
H        0.1798150436    0.6352298636    2.7520182082
H        1.3783579598   -1.8673317292    1.3039354443
H        0.0234142659   -1.8944112250    2.4437765252
H       -0.1685069872   -2.5856929582    0.8242415777
H        1.3480258505   -0.3617467447   -0.6724513595
H       -0.1523287286   -1.1391377687   -1.1665031831
H       -1.2415692499    1.1155144477   -1.4946031871
H        1.7284559607    1.8349185260   -1.5516222762
H       -0.8410389423    3.3837755144   -2.3499503471
H        0.5036936628    3.2028668992   -3.4988950235
H        0.7410251905    4.0908802939   -1.9968219690
24   
torsion grid (-150,)
C       -1.7583769490   -0.4690687735    0.9251060048
C       -0.2244104767   -0.5467966525    0.8213807991
C        0.4083687754    0.5485307904    1.6963100380
C        0.2449048342   -1.9277390154    1.3133120865
C        0.2336493060   -0.3798937796   -0.6552759795
C       -0.1868836750    0.9016031278   -1.3227136167
C        0.6479412636    1.8758567447   -1.7067758044
C        0.2291504403    3.1635475430   -2.3726507064
H       -2.2379250916   -1.2044119025    0.2678634163
H       -2.0869690526   -0.6736698653    1.9504726425
H       -2.1318761599    0.5229991051    0.6519934240
H        1.5031084958    0.5003952284    1.6560821971
H        0.1068783737    1.5464655872    1.3635220425
H        0.1062077947    0.4322686754    2.7435502128
H        1.3345650260   -2.0240877133    1.2410264924
H       -0.0359281193   -2.0880596237    2.3606121975
H       -0.2029657665   -2.7332026002    0.7194211331
H        1.3269772162   -0.4626997716   -0.6912324026
H       -0.1638193096   -1.2295141867   -1.2287395735
H       -1.2555709880    1.0328528462   -1.5027149698
H        1.7132372241    1.7558685109   -1.5011183901
H       -0.7861967737    3.4536086647   -2.0841846320
H        0.2694974037    3.0866624703   -3.4665497427
H        0.8955989452    3.9850142395   -2.0871799457
24   
torsion grid (-135,)
C       -1.6990442567   -0.8474802068    0.9066732989
C       -0.1660708032   -0.8864266011    0.7712415442
C        0.4605408937    0.1766389924    1.6893090593
C        0.3412530732   -2.2799832389    1.1834168820
C        0.2599047996   -0.6350119803   -0.7030834690
C       -0.1992425151    0.6693438940   -1.2964659629
C        0.6085113517    1.6788343501   -1.6456996715
C        0.1470820364    2.9911613528   -2.2396868576
H       -2.1757455449   -1.5591394487    0.2218686351
H       -2.0034856645   -1.1104468667    1.9261712435
H       -2.0984127948    0.1486570172    0.6909904954
H        1.5550414767    0.1546832936    1.6264802942
H        0.1319163972    1.1833740515    1.4136012422
H        0.1813374498    0.0007750005    2.7346111438
H        1.4311813174   -2.3485001542    1.0873795140
H        0.0832497777   -2.4995776293    2.2258283010
H       -0.1004051905   -3.0638141887    0.5568326425
H        1.3538475993   -0.6920605000   -0.7630893786
H       -0.1309151444   -1.4629899492   -1.3117427272
H       -1.2740137623    0.7867245009   -1.4492067880
H        1.6799277334    1.5658828538   -1.4725707615
H       -0.7353836596    3.3800815458   -1.7207112539
H       -0.1030054773    2.8899685978   -3.3026819205
H        0.9290146264    3.7532272070   -2.1645470228
24   
torsion grid (-120,)
C       -1.6676858114   -0.9204090922    0.9020860701
C       -0.1339829701   -0.9372286713    0.7704135442
C        0.4757397303    0.1259916456    1.6995764284
C        0.3913436458   -2.3273606594    1.1714380365
C        0.2920533162   -0.6668229907   -0.7006035542
C       -0.1845108038    0.6357022345   -1.2840841127
C        0.6086945676    1.6626051643   -1.6153366160
C        0.1278169508    2.9743119413   -2.1991965088
H       -2.1328677913   -1.6321514823    0.2094874174
H       -1.9711692106   -1.1968619615    1.9183003151
H       -2.0799937188    0.0721509514    0.6943704435
H        1.5705951369    0.1193017371    1.6397358091
H        0.1344595458    1.1306385937    1.4317756890
H        0.1959580448   -0.0628077122    2.7424675341
H        1.4822791942   -2.3803043258    1.0770092697
H        0.1343419442   -2.5595287525    2.2113704202
H       -0.0384827140   -3.1115646787    0.5371449302
H        1.3869131874   -0.7069384477   -0.7578106160
H       -0.0849143225   -1.4952836329   -1.3172612302
H       -1.2601209993    0.7364334244   -1.4435205229
H        1.6827406744    1.5562982438   -1.4558437860
H       -0.5689428406    3.4842934230   -1.5240116596
H       -0.3928996728    2.8240291216   -3.1517365066
H        0.9616355818    3.6568882674   -2.3860109564
24   
torsion grid (-105,)
C       -1.7025289370   -0.9031532000    0.8738139920
C       -0.1666046985   -0.9116596222    0.7704620185
C        0.4193570271    0.1652540563    1.6991492395
C        0.3599079169   -2.2940437711    1.1959231636
C        0.2846295542   -0.6541625740   -0.6954259876
C       -0.1920600128    0.6375342078   -1.3024651833
C        0.5968834436    1.6719782864   -1.6203129652
C        0.1167421998    2.9729708557   -2.2240895028
H       -2.1504711340   -1.6256349593    0.1809625555
H       -2.0229333251   -1.1700677766    1.8873849966
H       -2.1169701460    0.0843667595    0.6471921916
H        1.5151543564    0.1646511621    1.6597981147
H        0.0770856475    1.1648200140    1.4141905788
H        0.1212300089   -0.0140207268    2.7386291040
H        1.4526541862   -2.3411916456    1.1214212670
H        0.0858570187   -2.5165377176    2.2336162702
H       -0.0538251641   -3.0877209752    0.5627213196
H        1.3806912417   -0.6851690130   -0.7312536159
H       -0.0735681211   -1.4927392314   -1.3094960692
H       -1.2642387477    0.7242521225   -1.4900667424
H        1.6706705181    1.5719360535   -1.4538334297
H       -0.3642830257    3.6105778327   -1.4717620291
H       -0.6252644958    2.7967923238   -3.0103631499
H        0.9408255682    3.5420987425   -2.6635393261
24   
torsion grid (-90,)
C       -1.6533093528   -0.9142952581    0.8770636495
C       -0.1169072506   -0.9107887238    0.7809189426
C        0.4564304066    0.1674611264    1.7159435037
C        0.4181934744   -2.2905130911    1.2042649973
C        0.3391131102   -0.6449806598   -0.6820058820
C       -0.1447442287    0.6451833231   -1.2868545179
C        0.6366098623    1.6890079830   -1.5927848642
C        0.1526276490    2.9870297020   -2.1909664927
H       -2.0924083960   -1.6386722083    0.1805389733
H       -1.9763900542   -1.1859227935    1.8885336373
H       -2.0741887545    0.0705359948    0.6506257288
H        1.5523442800    0.1761521752    1.6809274378
H        0.1067756991    1.1651812174    1.4335237058
H        0.1557590985   -0.0183093465    2.7535432561
H        1.5116539886   -2.3288579017    1.1353709152
H        0.1404430419   -2.5188566047    2.2397016176
H        0.0140135980   -3.0851273845    0.5660902934
H        1.4355126573   -0.6678314701   -0.7127079562
H       -0.0100612586   -1.4839511409   -1.3006329016
H       -1.2158571560    0.7232841574   -1.4827495832
H        1.7114994477    1.5973158707   -1.4259521493
H       -0.0874807900    3.7204000549   -1.4098396055
H       -0.7613656997    2.8367182239   -2.7750964575
H        0.9051855739    3.4356391686   -2.8470260087
24   
torsion grid (-75,)
C       -1.6401348463   -0.8609051361    0.8856601993
C       -0.1031277717   -0.8414523191    0.8018985208
C        0.4510279339    0.2476176045    1.7359765011
C        0.4431770077   -2.2132189073    1.2366412198
C        0.3619109578   -0.5781594820   -0.6586060296
C       -0.1309685763    0.7038559055   -1.2736279765
C        0.6413168824    1.7543208054   -1.5798513408
C        0.1523682850    3.0422234485   -2.1877355770
H       -2.0658215890   -1.5932809771    0.1891702603
H       -1.9684725177   -1.1311289324    1.8958119331
H       -2.0695928129    0.1182885917    0.6510601638
H        1.5470601189    0.2675907523    1.7101168240
H        0.0931939207    1.2400890470    1.4454247534
H        0.1436253919    0.0640475673    2.7719904192
H        1.5375076811   -2.2402606141    1.1767479435
H        0.1594806028   -2.4392860122    2.2709640828
H        0.0526363151   -3.0153138141    0.5993251540
H        1.4586750296   -0.5898846166   -0.6805011353
H        0.0264925372   -1.4236570161   -1.2759234933
H       -1.2010554491    0.7700356564   -1.4780995325
H        1.7153019725    1.6809263700   -1.3965463797
H        0.1435381481    3.8518988319   -1.4459574033
H       -0.8689486834    2.9385099945   -2.5682403510
H        0.7943794008    3.3653896573   -3.0149919752
24   
torsion grid (-60,)
C       -1.6341637300   -0.7594571302    0.8958348314
C       -0.0964180220   -0.7294807493    0.8307848265
C        0.4378025947    0.3782712847    1.7544759965
C        0.4546245204   -2.0900920411    1.2937063756
C        0.3849824981   -0.4853290754   -0.6276688689
C       -0.1097096775    0.7832222181   -1.2687568168
C        0.6594043138    1.8321458877   -1.5879184670
C        0.1714424671    3.1046838203   -2.2247973618
H       -2.0456528337   -1.5055697406    0.2054150127
H       -1.9729950611   -1.0168502200    1.9058703976
H       -2.0680020090    0.2127418796    0.6411049746
H        1.5339230024    0.4057783814    1.7424553663
H        0.0766813796    1.3633495487    1.4435182252
H        0.1183095100    0.2088986869    2.7892491135
H        1.5497778514   -2.1098205751    1.2475282564
H        0.1599569719   -2.3020685011    2.3279462911
H        0.0778313022   -2.9050128517    0.6644261201
H        1.4819770382   -0.4894093436   -0.6359796240
H        0.0635781930   -1.3427391341   -1.2359847097
H       -1.1781233878    0.8397003200   -1.4841311383
H        1.7293530945    1.7773667653   -1.3759213514
H        0.3792144683    3.9718789232   -1.5849334083
H       -0.9065467195    3.0714911402   -2.4112953947
H        0.6770420279    3.2892554055   -3.1810276045
24   
torsion grid (-45,)
C       -1.6504231595   -0.6520101666    0.9014278476
C       -0.1117995070   -0.6182867127    0.8650390455
C        0.4017778219    0.5041000098    1.7827474572
C        0.4340388544   -1.9705319261    1.3577040604
C        0.3965465326   -0.3934993312   -0.5873139225
C       -0.0872533032    0.8655743174   -1.2547915799
C        0.6885083650    1.9070647370   -1.5820941815
C        0.2110556114    3.1694995140   -2.2485893136
H       -2.0467116215   -1.4087683040    0.2137113519
H       -2.0076176599   -0.8965067285    1.9083313209
H       -2.0821206285    0.3152679899    0.6252305265
H        1.4978631909    0.5344901385    1.7912882993
H        0.0442681981    1.4836044838    1.4507090411
H        0.0629777329    0.3487169380    2.8135695920
H        1.5299201165   -1.9876237456    1.3326119253
H        0.1203305397   -2.1686737290    2.3890819743
H        0.0715228829   -2.7954513845    0.7330740786
H        1.4935163648   -0.3965035436   -0.5754144097
H        0.0874174366   -1.2596070965   -1.1897257297
H       -1.1527200403    0.9203416459   -1.4850970664
H        1.7514802018    1.8615835303   -1.3363124466
H        0.6197536477    4.0580752066   -1.7529570480
H       -0.8809431289    3.2393881957   -2.2493778893
H        0.5519907207    3.2160187239   -3.2916089998
24   
torsion grid (-30,)
C       -1.7200646095   -0.6795801833    0.8081261621
C       -0.1808950194   -0.6519371047    0.8138993947
C        0.3119312108    0.4582261538    1.7574798295
C        0.3460025602   -2.0117655542    1.3063271746
C        0.3678259492   -0.4133972399   -0.6214820545
C       -0.0940206722    0.8537688792   -1.2890361702
C        0.6947850475    1.8937147868   -1.5888799624
C        0.2357717259    3.1653757784   -2.2578770495
H       -2.1005205277   -1.4259726230    0.1004304990
H       -2.1054336896   -0.9351195400    1.8018089831
H       -2.1403614274    0.2928888248    0.5325732223
H        1.4074713502    0.4829501093    1.7971762271
H       -0.0312819028    1.4429403197    1.4257315012
H       -0.0565281038    0.2939486935    2.7766868050
H        1.4420784654   -2.0337825761    1.3092425893
H        0.0049613024   -2.2190568927    2.3271772004
H       -0.0039652938   -2.8284744480    0.6640027424
H        1.4640604278   -0.4194332943   -0.5795785794
H        0.0733886930   -1.2724470941   -1.2411784434
H       -1.1534754484    0.9149565594   -1.5450265771
H        1.7479976226    1.8434675245   -1.3064464758
H        0.8209297349    4.0266602922   -1.9184517346
H       -0.8248423173    3.3633567051   -2.0754347201
H        0.3803403279    3.1099550436   -3.3453193164
24   
torsion grid (-15,)
C       -1.7944319966   -0.6497916201    0.7433663132
C       -0.2560003119   -0.6135160490    0.7854173859
C        0.2084195798    0.5146877825    1.7219422238
C        0.2659603697   -1.9621105093    1.3127484214
C        0.3256537066   -0.3956583109   -0.6402548361
C       -0.1248948674    0.8586783894   -1.3388180261
C        0.6672258410    1.8966649415   -1.6365157011
C        0.2146691928    3.1578200313   -2.3377062010
H       -2.1539819914   -1.4102948628    0.0397816335
H       -2.2022331270   -0.8903591474    1.7318195391
H       -2.2130334763    0.3154431104    0.4410518888
H        1.3025809132    0.5469210401    1.7863029695
H       -0.1326347525    1.4918495205    1.3664740946
H       -0.1824849010    0.3645305689    2.7349509183
H        1.3617214831   -1.9774620765    1.3434601847
H       -0.0994588548   -2.1550664004    2.3279540750
H       -0.0631385658   -2.7910953385    0.6751387368
H        1.4206201422   -0.3959875208   -0.5723771413
H        0.0493659519   -1.2659557663   -1.2526191669
H       -1.1785976223    0.9110960235   -1.6202963557
H        1.7145118778    1.8501127420   -1.3336624115
H        0.9427806671    3.9650877056   -2.2143202011
H       -0.7542930023    3.5060439671   -1.9657703913
H        0.1113982093    2.9946282251   -3.4181096431
24   
torsion grid (0,)
C       -1.8380938806   -0.6186613806    0.6984882018
C       -0.3011918575   -0.5706717895    0.7726186796
C        0.1354332405    0.5744130445    1.7019708360
C        0.2187328419   -1.9075819424    1.3308222974
C        0.3090368593   -0.3696497754   -0.6436120018
C       -0.1343435638    0.8713537324   -1.3698870312
C        0.6559630481    1.9128069562   -1.6600921529
C        0.2080449827    3.1627702774   -2.3878791957
H       -2.1772871548   -1.3922284412   -0.0009455534
H       -2.2652730162   -0.8472497093    1.6815879323
H       -2.2567837148    0.3388580752    0.3726456049
H        1.2277625270    0.6163308127    1.7879525114
H       -0.2056870988    1.5437036378    1.3256535826
H       -0.2749071343    0.4356141190    2.7088970544
H        1.3136281462   -1.9142287289    1.3857813267
H       -0.1675812380   -2.0886236104    2.3404737478
H       -0.0902636481   -2.7481121448    0.6982990603
H        1.4023031392   -0.3613955743   -0.5525083686
H        0.0512592676   -1.2506550582   -1.2486733375
H       -1.1815460809    0.9112617443   -1.6769371224
H        1.7018099856    1.8672722308   -1.3527746858
H        1.0322591656    3.8717531641   -2.5065825272
H       -0.5932405832    3.6787201979   -1.8464266540
H       -0.1722227483    2.9310516084   -3.3892526563
24   
torsion grid (15,)
C       -1.7993136158   -0.6880662878    0.6903055785
C       -0.2635141644   -0.6235340883    0.7739847626
C        0.1546782727    0.5139221339    1.7210187401
C        0.2686210424   -1.9617643588    1.3173189267
C        0.3522847752   -0.3966700049   -0.6359669727
C       -0.1022237815    0.8481770988   -1.3486726386
C        0.6750427059    1.9060230858   -1.6139910260
C        0.2168149116    3.1599249449   -2.3243932244
H       -2.1256143187   -1.4561772716   -0.0211710597
H       -2.2293718032   -0.9344777965    1.6678337445
H       -2.2270827577    0.2688324212    0.3745978712
H        1.2459398487    0.5670589998    1.8140197834
H       -0.1953645479    1.4842125342    1.3556570163
H       -0.2598859563    0.3570392249    2.7235462579
H        1.3632193983   -1.9567784293    1.3780989445
H       -0.1209321774   -2.1605570494    2.3223751685
H       -0.0274741085   -2.7972401935    0.6720605382
H        1.4447946184   -0.3760110412   -0.5379308965
H        0.1089429387   -1.2728077256   -1.2538605995
H       -1.1469061738    0.8779282728   -1.6649038007
H        1.7248770541    1.8620211342   -1.3196891364
H        1.0666920161    3.7498279803   -2.6803351794
H       -0.3521706055    3.8114679505   -1.6485245500
H       -0.4285722130    2.9320633147   -3.1786367294
24   
torsion grid (30,)
C       -1.8246574111   -0.5499405133    0.7033697102
C       -0.2907941446   -0.4739205192    0.8095918400
C        0.1062485979    0.7046956486    1.7144932502
C        0.2383370761   -1.7851823559    1.4177111430
C        0.3472779741   -0.3034767492   -0.5984301843
C       -0.1022053536    0.9073247841   -1.3707458868
C        0.6706716548    1.9618348667   -1.6612808656
C        0.2213814787    3.1810848633   -2.4272787528
H       -2.1355378074   -1.3498726762    0.0206256337
H       -2.2699572446   -0.7559554404    1.6834241213
H       -2.2511702880    0.3901847051    0.3392890163
H        1.1955682936    0.7679220424    1.8227559936
H       -0.2428887899    1.6567249812    1.3031494691
H       -0.3237983802    0.5876142534    2.7159321685
H        1.3317196051   -1.7717644562    1.4965180999
H       -0.1672372558   -1.9435770398    2.4236124731
H       -0.0429134041   -2.6486636115    0.8034254241
H        1.4378372321   -0.2722757799   -0.4831515695
H        0.1188833113   -1.2063573691   -1.1825037375
H       -1.1395503682    0.9145620580   -1.7106900538
H        1.7164640164    1.9393716187   -1.3492350090
H        1.0429414755    3.6111676505   -3.0097947910
H       -0.1112785268    3.9726188774   -1.7417745867
H       -0.6109896914    2.9564273223   -3.1009052297
24   
torsion grid (45,)
C       -1.8271354858   -0.4745810631    0.7037896156
C       -0.2952762382   -0.3847151687    0.8267309907
C        0.0817052281    0.8086854136    1.7207972157
C        0.2371913321   -1.6836817906    1.4578879641
C        0.3578481886   -0.2271739524   -0.5758535820
C       -0.0929934546    0.9696389179   -1.3690660131
C        0.6741345967    2.0266340244   -1.6656821184
C        0.2273917669    3.2301253518   -2.4517679926
H       -2.1236416957   -1.2858941251    0.0281128243
H       -2.2821435290   -0.6713765363    1.6812748116
H       -2.2568298477    0.4572208946    0.3224846522
H        1.1691293989    0.8818570557    1.8412792199
H       -0.2699428002    1.7524539546    1.2928850460
H       -0.3594329746    0.7012240074    2.7184793111
H        1.3294440899   -1.6603861351    1.5491167350
H       -0.1787802839   -1.8323991612    2.4610170791
H       -0.0300150991   -2.5572607385    0.8516573448
H        1.4466745668   -0.1854986225   -0.4483799361
H        0.1438220795   -1.1393234605   -1.1508644855
H       -1.1260979971    0.9638907075   -1.7210604773
H        1.7140841584    2.0246567354   -1.3326805971
H        0.9667316434    3.5042952479   -3.2134741182
H        0.1206585118    4.1067308900   -1.7984129897
H       -0.7352323041    3.0588154266   -2.9429425160
24   
torsion grid (60,)
C       -1.8348131772   -0.3746643970    0.6931027546
C       -0.3054590209   -0.2757121953    0.8382893503
C        0.0521448622    0.9317098841    1.7214484691
C        0.2231715647   -1.5633063281    1.4954387514
C        0.3686189150   -0.1342332925   -0.5559995513
C       -0.0757292874    1.0492226688   -1.3726644015
C        0.6926521906    2.1027981229   -1.6779620216
C        0.2543101055    3.2907671215   -2.4901565951
H       -2.1171199783   -1.1962925276    0.0238353562
H       -2.3038393430   -0.5607252659    1.6660491028
H       -2.2629734550    0.5499086992    0.2929593379
H        1.1371812256    1.0111746184    1.8584316742
H       -0.2964095126    1.8678469625    1.2746371598
H       -0.4045998239    0.8363566434    2.7133209954
H        1.3138176312   -1.5337350120    1.6026748676
H       -0.2071671096   -1.6999690910    2.4942119753
H       -0.0310607736   -2.4464609286    0.8975522915
H        1.4551489969   -0.0857253562   -0.4125470186
H        0.1678188832   -1.0551698466   -1.1217388109
H       -1.1042394391    1.0351508918   -1.7374290649
H        1.7225249115    2.1192142767   -1.3148819784
H        0.8705183188    3.4046008806   -3.3910499554
H        0.3572059494    4.2211944859   -1.9173307961
H       -0.7903331438    3.1983691106   -2.8034129381
24   
torsion grid (75,)
C       -1.7230173146    0.0984652586    1.1302005585
C       -0.2125444137   -0.1048891631    0.9135553604
C        0.5659622412    1.0186372857    1.6187741550
C        0.2033737264   -1.4635442703    1.5054118758
C        0.1262209615   -0.1162107760   -0.6041320433
C       -0.2654290745    1.1223921926   -1.3639286451
C        0.5949035181    1.9936689020   -1.9064256469
C        0.2087131008    3.2346052639   -2.6668503739
H       -2.3061090554   -0.6589848563    0.5926535772
H       -1.9745148344    0.0200976844    2.1940728231
H       -2.0510624979    1.0846497845    0.7865523288
H        1.6473945506    0.8838090524    1.4974641964
H        0.3050101038    1.9997294132    1.2102808983
H        0.3479252349    1.0273776916    2.6929738753
H        1.2737358186   -1.6486070111    1.3572433220
H        0.0038872833   -1.5005418959    2.5825596261
H       -0.3474192080   -2.2862355993    1.0343767060
H        1.2045288194   -0.2829295441   -0.7178170663
H       -0.3743226866   -0.9854653316   -1.0540862706
H       -1.3345215974    1.3120891845   -1.4750511485
H        1.6647099203    1.8151794587   -1.7796137607
H        0.3773511810    3.1088666175   -3.7444494491
H        0.7968001509    4.1013213243   -2.3440694564
H       -0.8514880445    3.4705467304   -2.5288492284
24   
torsion grid (90,)
C       -1.7384723701   -0.0422902863    1.1099851405
C       -0.2251268365   -0.2279047385    0.8974192306
C        0.5397754386    0.8869532125    1.6306948914
C        0.1994185158   -1.5952610676    1.4625279018
C        0.1219612735   -0.2039218791   -0.6182013606
C       -0.2749483550    1.0475858399   -1.3535644733
C        0.5820605679    1.9325837846   -1.8787860231
C        0.1867986033    3.1875798534   -2.6175294059
H       -2.3120800445   -0.7923998397    0.5523250576
H       -1.9951346457   -0.1466040052    2.1703878452
H       -2.0732014547    0.9485259837    0.7866857847
H        1.6229680443    0.7639692041    1.5125613294
H        0.2727173614    1.8742551651    1.2415428470
H        0.3158799355    0.8710416886    2.7036110457
H        1.2720587834   -1.7680649619    1.3160589431
H       -0.0051571427   -1.6567859521    2.5375959921
H       -0.3419070600   -2.4124177623    0.9713127520
H        1.2021350718   -0.3598183617   -0.7296428526
H       -0.3692692098   -1.0672638498   -1.0894294718
H       -1.3451466004    1.2340854263   -1.4616249493
H        1.6515315620    1.7594507986   -1.7450637333
H        0.1099715196    3.0073251430   -3.6977182633
H        0.9145814842    3.9910618752   -2.4661250595
H       -0.7926735058    3.5492896125   -2.2870832796
24   
torsion grid (105,)
C       -1.7411069200   -0.0862083753    1.0940995542
C       -0.2241666916   -0.2556992623    0.8940303383
C        0.5230688649    0.8636358470    1.6385597117
C        0.2092050625   -1.6210803399    1.4572264270
C        0.1357650881   -0.2219361610   -0.6184507890
C       -0.2656512553    1.0291011729   -1.3519674118
C        0.5884303408    1.9240853033   -1.8647812975
C        0.1851134167    3.1819875896   -2.6014914734
H       -2.3022156007   -0.8400972517    0.5288797879
H       -2.0058941791   -0.1968481407    2.1518616262
H       -2.0831369208    0.9022864972    0.7713030208
H        1.6083910695    0.7526547709    1.5284657249
H        0.2488891369    1.8499294779    1.2518141519
H        0.2908110782    0.8403298514    2.7095654701
H        1.2849788641   -1.7819450842    1.3204909324
H       -0.0051567051   -1.6895822504    2.5299639430
H       -0.3186672970   -2.4416524346    0.9571506719
H        1.2182883463   -0.3673405362   -0.7211891438
H       -0.3435021870   -1.0877666438   -1.0974146292
H       -1.3367839963    1.2062947308   -1.4685082514
H        1.6575826367    1.7538909478   -1.7280811169
H       -0.1452072654    2.9596525175   -3.6237186554
H        1.0135335212    3.8930094619   -2.6676627056
H       -0.6496173635    3.6857558976   -2.1019049847
24   
torsion grid (120,)
C       -1.7149020625   -0.1728055153    1.0977614697
C       -0.1955282473   -0.3181973944    0.8972113586
C        0.5349119952    0.8039975426    1.6539824290
C        0.2573042934   -1.6829398040    1.4464481536
C        0.1647097494   -0.2634014494   -0.6146492733
C       -0.2556047752    0.9885536057   -1.3358274192
C        0.5847041558    1.9059456282   -1.8315109406
C        0.1607287381    3.1672814476   -2.5540032147
H       -2.2646140999   -0.9288192189    0.5242397284
H       -1.9788320182   -0.2982686951    2.1540850303
H       -2.0709590498    0.8139186455    0.7848505905
H        1.6217836584    0.7100844370    1.5434292252
H        0.2466138774    1.7902263374    1.2774981292
H        0.3024212120    0.7660029496    2.7245187400
H        1.3353611555   -1.8267697721    1.3087244028
H        0.0434355797   -1.7656913667    2.5182798913
H       -0.2583818066   -2.5058168325    0.9375322696
H        1.2495250508   -0.3904450010   -0.7177813154
H       -0.3006636847   -1.1317466285   -1.1026284884
H       -1.3292934762    1.1472517213   -1.4562853789
H        1.6564625409    1.7418594227   -1.7101759980
H       -0.4204279431    2.9391846912   -3.4547148220
H        1.0265735594    3.7590472161   -2.8641691955
H       -0.4622896074    3.8059868678   -1.9173499939
24   
torsion grid (135,)
C       -1.6822099120   -0.2538911757    1.0904702532
C       -0.1606352917   -0.3832396457    0.8957595283
C        0.5563740948    0.7316703928    1.6757803486
C        0.3007353054   -1.7534921296    1.4237600478
C        0.2069605174   -0.2993502646   -0.6130732732
C       -0.2217412735    0.9607354921   -1.3149269483
C        0.6116824182    1.8995827087   -1.7813681811
C        0.1806347652    3.1687228100   -2.4823288847
H       -2.2224989057   -1.0043950157    0.5009752995
H       -1.9507053576   -0.3998081162    2.1430131717
H       -2.0447509786    0.7351259622    0.7926073532
H        1.6445764724    0.6485389005    1.5698406045
H        0.2619766676    1.7218616456    1.3147814864
H        0.3182261349    0.6733081526    2.7441513733
H        1.3805869646   -1.8861770460    1.2889313651
H        0.0823780066   -1.8563822782    2.4929400396
H       -0.2057477069   -2.5716388196    0.8982530275
H        1.2935340261   -0.4140532010   -0.7121148259
H       -0.2474757828   -1.1636141258   -1.1181760800
H       -1.2958490622    1.1080108193   -1.4446657889
H        1.6850921577    1.7373547162   -1.6711705164
H       -0.6113984756    2.9757793031   -3.2134287972
H        1.0164739611    3.6233653735   -3.0230627966
H       -0.1896875624    3.9184525315   -1.7724405294
24   
torsion grid (150,)
C       -1.6839810202   -0.3043359360    1.0614387365
C       -0.1595495684   -0.4199232100    0.8809518350
C        0.5408211991    0.6912978352    1.6811406813
C        0.3069368375   -1.7926692239    1.3978288716
C        0.2227269866   -0.3157271810   -0.6229386190
C       -0.2088468776    0.9491726046   -1.3144968932
C        0.6212253868    1.9016669842   -1.7588619937
C        0.1911794920    3.1729059854   -2.4487456306
H       -2.2124051585   -1.0522645355    0.4580753403
H       -1.9620338181   -0.4641547650    2.1094747033
H       -2.0510274693    0.6852010005    0.7709310536
H        1.6306602190    0.6178510604    1.5852949231
H        0.2421168351    1.6833290391    1.3288595366
H        0.2924312676    0.6184814278    2.7462823568
H        1.3890619294   -1.9157207807    1.2723922797
H        0.0786714691   -1.9095361772    2.4634973335
H       -0.1880451214   -2.6084546774    0.8578869919
H        1.3110901858   -0.4211107996   -0.7119800935
H       -0.2199017201   -1.1773391736   -1.1427654991
H       -1.2822785393    1.0888741979   -1.4556563943
H        1.6957026155    1.7464326330   -1.6450950234
H       -0.7552563838    3.0400577125   -2.9823076126
H        0.9377684131    3.4904840506   -3.1849660229
H        0.0741253611    4.0002540914   -1.7371447847
24   
torsion grid (165,)
C       -1.6956388164   -0.3657998974    1.0265919023
C       -0.1687667715   -0.4704419029    0.8607018750
C        0.5167182126    0.6332242161    1.6839311055
C        0.3000950158   -1.8477494325    1.3630158064
C        0.2285868706   -0.3427673648   -0.6374689033
C       -0.2038475020    0.9293187270   -1.3154543382
C        0.6239623492    1.8954901047   -1.7337127508
C        0.1968965915    3.1718419071   -2.4085674914
H       -2.2133925838   -1.1086746667    0.4079169163
H       -1.9837598602   -0.5409697580    2.0694453232
H       -2.0651560443    0.6254346037    0.7451686325
H        1.6079136815    0.5676066405    1.5982341895
H        0.2153833602    1.6284405969    1.3430861418
H        0.2580251626    0.5434001270    2.7453126271
H        1.3842193787   -1.9628821958    1.2476845719
H        0.0609331018   -1.9812060470    2.4243357486
H       -0.1842419206   -2.6584922061    0.8060771725
H        1.3183702306   -0.4408069197   -0.7165933727
H       -0.2035357398   -1.1993233835   -1.1741399559
H       -1.2760344467    1.0625728636   -1.4700880942
H        1.6983616527    1.7540818209   -1.5993195436
H       -0.8451425947    3.1211624720   -2.7394237139
H        0.8156252121    3.3752685541   -3.2908565960
H        0.3065947930    4.0352327315   -1.7395236799
24   
torsion grid (180,)
C       -1.7084225437   -0.4346401953    0.9919923314
C       -0.1792637819   -0.5281526471    0.8412889928
C        0.4907159930    0.5685612392    1.6863098842
C        0.2922714108   -1.9092435950    1.3306219568
C        0.2338356974   -0.3783493841   -0.6504754577
C       -0.1991114529    0.8997510383   -1.3167769770
C        0.6278991389    1.8721489942   -1.7219151361
C        0.2022783134    3.1538224117   -2.3846399859
H       -2.2150743954   -1.1721061074    0.3578506374
H       -2.0066142008   -0.6255596458    2.0292297473
H       -2.0808897312    0.5581313106    0.7200665365
H        1.5831829512    0.5093299697    1.6129029485
H        0.1883844747    1.5664139295    1.3540918207
H        0.2198851672    0.4643843298    2.7433415184
H        1.3782054520   -2.0166968174    1.2253416948
H        0.0427319504   -2.0578980299    2.3875269486
H       -0.1814328410   -2.7153985936    0.7581008623
H        1.3249884395   -0.4688586399   -0.7188593616
H       -0.1867565663   -1.2304558344   -1.2032113319
H       -1.2707947064    1.0316276560   -1.4754794540
H        1.7009734181    1.7421144718   -1.5659186800
H       -0.8848062437    3.2024668516   -2.5020879257
H        0.6570152470    3.2568287662   -3.3780187499
H        0.5210170670    4.0260820470   -1.7997413977
