27   
torsion grid (-165,)
C        5.9046410788    1.4724743643   -0.1862966930
C        4.9421590218    1.8818687404   -1.1078646810
C        5.6963517216    0.2678353918    0.4904511646
C        3.7924056142    1.1198059464   -1.3069033969
C        4.5629213647   -0.5344586374    0.3036309505
C        3.5447121632   -0.0764395247   -0.5875841510
C        0.2917181272   -1.8486549093   -0.4740951672
C        0.3813341810   -1.4335070645   -1.9477617133
C        1.7578454266   -1.8188738871   -0.0212623804
C        1.4621593984   -0.3480426062   -1.9245632091
C        4.5574869559   -1.8858594547    0.9970562947
N        2.3581508862   -0.7581400984   -0.8408270948
H        6.8044163444    2.0560288055   -0.0135568872
H        5.0756852022    2.7986671467   -1.6773516618
H        6.4622428205   -0.0880604029    1.1765315147
H        3.0565446133    1.4806994489   -2.0148026875
H       -0.2888213816   -1.1091333072    0.0884982380
H       -0.1687284056   -2.8288953538   -0.3226240908
H        0.7125534071   -2.2801605739   -2.5592877643
H       -0.5648569335   -1.0688274893   -2.3565125585
H        2.2298190964   -2.7930523329   -0.1987229427
H        1.8412111560   -1.5905338024    1.0440743355
H        2.0010349814   -0.2790214682   -2.8769677283
H        1.0159450150    0.6394865499   -1.7245040980
H        3.8173288303   -1.9681027587    1.7981145330
H        5.5368719940   -2.0652058237    1.4480606811
H        4.3759051643   -2.7019808002    0.2921473152
27   
torsion grid (-150,)
C        5.8356600215    1.5073066626   -0.1081650649
C        4.8880389614    1.9132677210   -1.0473718895
C        5.6578412552    0.2723858764    0.5221125756
C        3.7695781836    1.1205478767   -1.3040782277
C        4.5593827207   -0.5590602506    0.2704903014
C        3.5489629600   -0.1006550671   -0.6249208298
C        0.2593177111   -1.7532885734   -0.4296236925
C        0.3774478868   -1.4735325779   -1.9338069505
C        1.7203111348   -1.7199816810    0.0494368315
C        1.4856350805   -0.4206378229   -1.9760255207
C        4.5763265562   -1.9525961803    0.8672782206
N        2.4070137103   -0.8467737741   -0.9214411684
H        6.7081654163    2.1172821452    0.1083864201
H        5.0091165776    2.8514582727   -1.5837480716
H        6.4206174943   -0.0833742114    1.2118778959
H        3.0432796622    1.4724759618   -2.0268546339
H       -0.3131170306   -0.9526195676    0.0514760218
H       -0.2306802824   -2.7030464689   -0.1981920723
H        0.6957135641   -2.3759490645   -2.4673673688
H       -0.5530837296   -1.1184729903   -2.3849657038
H        2.1458404059   -2.7289024133    0.0516567033
H        1.8007617359   -1.3184080449    1.0652515071
H        1.9968005429   -0.3768314363   -2.9440977758
H        1.0644018247    0.5788792069   -1.7745043828
H        3.8354533533   -2.1046951811    1.6577591589
H        5.5588684622   -2.1538467229    1.3023092213
H        4.3977972777   -2.7110231179    0.0981382463
27   
torsion grid (-135,)
C        5.7903272735    1.4997081062   -0.0632016390
C        4.8275672851    1.9352766987   -0.9737332602
C        5.6515997569    0.2277251935    0.5004655802
C        3.7307360287    1.1264292978   -1.2762322826
C        4.5746504902   -0.6141970436    0.1993279226
C        3.5608910397   -0.1409251053   -0.6790337616
C        0.2314670444   -1.6790348978   -0.4786128504
C        0.4113136100   -1.5395747561   -1.9974369403
C        1.6743087105   -1.6259834442    0.0573797109
C        1.5469095072   -0.5209269296   -2.0785962913
C        4.5844911226   -2.0287188749    0.7357145562
N        2.4490724216   -0.9356897588   -1.0011265047
H        6.6457423412    2.1218659490    0.1853184955
H        4.9197248017    2.9086467358   -1.4496868921
H        6.4225718649   -0.1423195288    1.1734808087
H        2.9930928806    1.4956903949   -1.9789962401
H       -0.3458118581   -0.8296019388   -0.0976826752
H       -0.2865241626   -2.5952157297   -0.1820815334
H        0.7260742936   -2.4917604408   -2.4381670760
H       -0.4924122989   -1.2022267463   -2.5123490804
H        2.0577790391   -2.6370625637    0.2248874741
H        1.7372349304   -1.0833755710    1.0082191178
H        2.0716042078   -0.5220050582   -3.0397463292
H        1.1387844728    0.4916304440   -1.9177131582
H        3.8724979649   -2.1850128230    1.5528926496
H        5.5781942363   -2.2776457369    1.1179734820
H        4.3384933515   -2.7455349604   -0.0547837322
27   
torsion grid (-120,)
C        5.8055470010    1.4868633831   -0.0342425808
C        4.7949909324    1.9648808183   -0.8695391138
C        5.7119473163    0.1830615372    0.4620181693
C        3.6985709910    1.1554517194   -1.1755248851
C        4.6329081929   -0.6540615837    0.1549095726
C        3.5889139783   -0.1522783526   -0.6646641592
C        0.2280569113   -1.6649553257   -0.4811983793
C        0.4861027591   -1.6327989092   -1.9971625388
C        1.6275006092   -1.4629291602    0.1410235467
C        1.6128190418   -0.6066677018   -2.0952566106
C        4.6357493684   -2.0828405674    0.6451575676
N        2.4791046747   -0.9704295535   -0.9712374442
H        6.6619152763    2.1083766407    0.2133774241
H        4.8502847112    2.9700754079   -1.2805261838
H        6.5125908565   -0.2094113214    1.0859629832
H        2.9207801703    1.5513078075   -1.8189992922
H       -0.4322395731   -0.8370334900   -0.2029427610
H       -0.2445563556   -2.5915745407   -0.1445209346
H        0.8357684366   -2.6076389521   -2.3528134827
H       -0.3962035801   -1.3480924426   -2.5772118218
H        2.0200694724   -2.4038661414    0.5365841645
H        1.6034212002   -0.7413052788    0.9682973062
H        2.1736343863   -0.6480052841   -3.0343435735
H        1.1847554233    0.4064923004   -1.9992571854
H        4.0078233808   -2.2203203197    1.5331476049
H        5.6497921813   -2.3935142975    0.9120854186
H        4.2592120367   -2.7582645931   -0.1296905354
27   
torsion grid (-105,)
C        5.8547956728    1.4197795415   -0.0351770591
C        4.8090131412    1.9516292049   -0.7916336558
C        5.7579283776    0.1064975496    0.4351828879
C        3.6761652171    1.1769547003   -1.0549503398
C        4.6382248737   -0.6917777971    0.1723998279
C        3.5729979716   -0.1423967972   -0.5819123521
C        0.3049759547   -1.9006711175   -0.3528659696
C        0.4605997175   -1.6618531562   -1.8803069005
C        1.4959467237   -1.1517857068    0.2840348760
C        1.5706286169   -0.6070945567   -1.9761159266
C        4.5948959511   -2.1191879403    0.6628186086
N        2.4285774763   -0.9452096130   -0.8389077022
H        6.7411278474    2.0124240350    0.1757749993
H        4.8680105455    2.9679969121   -1.1733989844
H        6.5807373710   -0.3192837672    1.0062390539
H        2.8684818729    1.6047666906   -1.6397572015
H       -0.6441022005   -1.5142366893    0.0286955541
H        0.3404068086   -2.9678899140   -0.1193951822
H        0.7789944927   -2.5814335458   -2.3785871013
H       -0.4655244870   -1.3260126818   -2.3549368915
H        1.9705951490   -1.7136800525    1.0908492129
H        1.1724140061   -0.1817271306    0.6985076921
H        2.1390758280   -0.6443553842   -2.9098056864
H        1.1271146648    0.4008873518   -1.8843722332
H        4.0889495789   -2.2014519313    1.6328626863
H        5.6061155925   -2.5159419733    0.7914710612
H        4.0515492437   -2.7537433377   -0.0431507701
27   
torsion grid (-90,)
C        5.8535357371    1.3429944557    0.0664093304
C        4.7254131755    1.8439616308   -0.5873679027
C        5.8802751608    0.0022848988    0.4622096074
C        3.6370534260    1.0029034889   -0.8344794475
C        4.8023957747   -0.8579898389    0.2154799965
C        3.6668725386   -0.3474773841   -0.4530117047
C        0.4373720627   -2.1506323186   -0.1447837304
C        0.6330835251   -2.0799842691   -1.6861267781
C        1.5794912792   -1.2882437022    0.4319372129
C        1.7472063468   -1.0395910455   -1.8727583219
C        4.8545732799   -2.3010221879    0.6551673116
N        2.5594345191   -1.2248394528   -0.6662766939
H        6.7071078146    1.9868414711    0.2626600400
H        4.6877296455    2.8849403620   -0.8990089759
H        6.7614057915   -0.3899392740    0.9660602333
H        2.7611872536    1.4012890914   -1.3378169413
H       -0.5376248440   -1.7656666238    0.1665811392
H        0.5098615332   -3.1824454376    0.2084303940
H        0.9595664875   -3.0492372105   -2.0722239515
H       -0.2804852615   -1.7988344893   -2.2173715977
H        2.0330538346   -1.7160149583    1.3303854781
H        1.2168396689   -0.2778368347    0.6897957945
H        2.3539707672   -1.1961758707   -2.7692302673
H        1.2999227996   -0.0315125424   -1.9351413933
H        4.3032567995   -2.4541626222    1.5913536879
H        5.8862402670   -2.6211038831    0.8271408787
H        4.3944218402   -2.9508414886   -0.0937587491
27   
torsion grid (-75,)
C        5.8441802068    1.3579057433    0.0690080131
C        4.6606594831    1.8718467629   -0.4678977186
C        5.9292881701   -0.0023109261    0.3806602620
C        3.5765543216    1.0183260149   -0.6881584776
C        4.8518628889   -0.8721840804    0.1609396259
C        3.6646996409   -0.3493922543   -0.3914723719
C        0.3681449373   -2.0362410491   -0.1449021997
C        0.6813408518   -2.1455744642   -1.6651555330
C        1.4844042149   -1.1337158996    0.4187510689
C        1.8669926488   -1.1911122874   -1.8778187340
C        4.9530215692   -2.3371301439    0.5123966787
N        2.5567712554   -1.2412618660   -0.5831792319
H        6.6957238165    2.0105728052    0.2444394547
H        4.5799359655    2.9289294150   -0.7090738633
H        6.8515424948   -0.3991810372    0.7998016734
H        2.6536046296    1.4194871250   -1.0988982868
H       -0.6185988059   -1.6053854815    0.0462962129
H        0.3914021733   -3.0228184633    0.3249819072
H        0.9743999359   -3.1677765644   -1.9186749545
H       -0.1727287501   -1.8786673758   -2.2938200716
H        1.8475250081   -1.4513725793    1.4011492693
H        1.1305551080   -0.0918360046    0.5160466180
H        2.5422245889   -1.5018028397   -2.6805821700
H        1.4950921163   -0.1800709057   -2.1223598916
H        4.2980769977   -2.5900833914    1.3538935480
H        5.9770570392   -2.6017707435    0.7912463936
H        4.6379356147   -2.9645562715   -0.3256439815
27   
torsion grid (-60,)
C        5.8336481715    1.3458899932    0.0897766181
C        4.5962612094    1.8740015627   -0.2897099818
C        5.9665419093   -0.0303035776    0.2968571655
C        3.5057601910    1.0168766116   -0.4568832984
C        4.8803009433   -0.9024102337    0.1337087655
C        3.6355085641   -0.3631309317   -0.2459710649
C        0.3195623624   -2.0244804463   -0.1213110700
C        0.7411006280   -2.2496211261   -1.6028811037
C        1.3512785056   -1.0226515839    0.4274739896
C        2.0016568148   -1.3831551697   -1.7854247672
C        5.0350965259   -2.3879669007    0.3565831161
N        2.5264006766   -1.2589757566   -0.4196382984
H        6.6909805629    2.0008505462    0.2238510681
H        4.4818866263    2.9424982310   -0.4550104819
H        6.9317032175   -0.4368632347    0.5915373566
H        2.5418394794    1.4233967218   -0.7538085358
H       -0.7001413713   -1.6405347689   -0.0281070961
H        0.3704986047   -2.9640046193    0.4350333265
H        0.9727431426   -3.3034516367   -1.7775532191
H       -0.0431627964   -1.9637249193   -2.3093549050
H        1.6027192264   -1.1864535793    1.4798256474
H        0.9692088494    0.0099044356    0.3322608294
H        2.7518156595   -1.8363882165   -2.4408912407
H        1.7344517210   -0.4005674422   -2.2148117269
H        4.3348759319   -2.7488505167    1.1157830485
H        6.0528376846   -2.6297126491    0.6764301371
H        4.8176684753   -2.9503081529   -0.5571255513
27   
torsion grid (-45,)
C        5.8294317660    1.3793109401    0.1401212218
C        4.5764073844    1.9629876236   -0.0659737252
C        5.9398065706   -0.0125518213    0.2110240873
C        3.4498487637    1.1476492174   -0.1997146481
C        4.8183863075   -0.8444959075    0.0875849392
C        3.5534517868   -0.2489251040   -0.1073720135
C        0.2347528284   -1.8820508415   -0.0526503079
C        0.7097371227   -2.2087998842   -1.4953906718
C        1.1661096188   -0.7491986122    0.3989649146
C        2.0707347224   -1.4867276021   -1.6430914153
C        4.9587733170   -2.3456710798    0.1548754033
N        2.4176838044   -1.0965801341   -0.2715622129
H        6.7143565085    2.0017238013    0.2464178288
H        4.4772891620    3.0438355343   -0.1301788091
H        6.9161976087   -0.4647499666    0.3729356205
H        2.4763135335    1.6000681753   -0.3693214736
H       -0.8196053695   -1.5947646489   -0.0085786057
H        0.3742100697   -2.7506255592    0.5968534417
H        0.8116508909   -3.2874551505   -1.6394559908
H        0.0007947318   -1.8468136993   -2.2453029677
H        1.3145951169   -0.7062611759    1.4819293216
H        0.7556664402    0.2249881581    0.0740303175
H        2.8528670111   -2.1236258505   -2.0682333664
H        1.9739720316   -0.6025108669   -2.2973450010
H        4.1438839616   -2.7863471786    0.7350001788
H        5.9158764825   -2.6309905832    0.6008981928
H        4.9134594726   -2.7945354651   -0.8451087552
27   
torsion grid (-30,)
C        5.6502150396    1.5227092342   -0.0147967103
C        4.3465735764    2.0131062329   -0.1198635596
C        5.8576804045    0.1402027080   -0.0051790044
C        3.2751932300    1.1248871687   -0.2326289531
C        4.7970167380   -0.7696863482   -0.0972985596
C        3.4776289243   -0.2680563408   -0.2206552233
C        0.2257790928   -2.0138578868   -0.2474146988
C        0.7749254143   -2.3440956879   -1.6462589946
C        1.0659311123   -0.7956604930    0.1388913116
C        2.2832104842   -2.0339625832   -1.5350138955
C        5.0641890776   -2.2533675777   -0.0188030951
N        2.3943674965   -1.1622544354   -0.3485905558
H        6.4928640559    2.2037784924    0.0703176869
H        4.1613007290    3.0845461753   -0.1270071609
H        6.8692876978   -0.2472654391    0.0990388541
H        2.2681999175    1.5183698329   -0.3299550299
H       -0.8481698216   -1.8070859240   -0.2446429586
H        0.4223022160   -2.8371012392    0.4477300012
H        0.5831243669   -3.3756008910   -1.9540136118
H        0.3097809002   -1.6847647649   -2.3869166549
H        1.0970455258   -0.6005270580    1.2156826802
H        0.6507109967    0.1013318478   -0.3541837260
H        2.8655673430   -2.9524777254   -1.4008981489
H        2.6627946317   -1.5327836147   -2.4356932997
H        4.2914416932   -2.7528522955    0.5742411960
H        6.0381422743   -2.4476420576    0.4391894355
H        5.0683513951   -2.7240826662   -1.0092206247
27   
torsion grid (-15,)
C        5.6163042473    1.5256472049   -0.0316802944
C        4.3049499523    2.0016475566    0.0019466207
C        5.8296899410    0.1464190162   -0.1157815289
C        3.2337986232    1.1099671072   -0.0816010363
C        4.7740726883   -0.7707346853   -0.1791947974
C        3.4411874479   -0.2802045244   -0.1915053696
C        0.1307772892   -1.9077235283   -0.3003037438
C        0.7697855689   -2.3645567587   -1.6211244582
C        1.0061200220   -0.7094160432    0.0642589042
C        2.2778815109   -2.1557054681   -1.3823171919
C        5.0778189892   -2.2509165665   -0.1482329034
N        2.3534457941   -1.1674658043   -0.2811005220
H        6.4585214286    2.2096929368    0.0277802266
H        4.1081893555    3.0679270104    0.0843635688
H        6.8481519260   -0.2368504114   -0.1024306895
H        2.2242889249    1.5050501038   -0.0650163843
H       -0.9254064476   -1.6425037891   -0.4000208973
H        0.2220219769   -2.6876907578    0.4633328547
H        0.5315917830   -3.3983436204   -1.8860231615
H        0.4229806476   -1.7220820507   -2.4376964101
H        0.9579497560   -0.4293621861    1.1216537055
H        0.6863687352    0.1630139130   -0.5313413975
H        2.7553063548   -3.0976149579   -1.0942605296
H        2.7886243680   -1.7857190129   -2.2801403938
H        4.3950114579   -2.7719487664    0.5309642953
H        6.1007349635   -2.4211208230    0.1988311190
H        4.9838148329   -2.7235114671   -1.1323589552
27   
torsion grid (0,)
C        5.5852972335    1.5244665305   -0.0291483080
C        4.2743342593    1.9768563302    0.1161887780
C        5.8031899594    0.1532548931   -0.1931644172
C        3.2089374986    1.0769053565    0.0506309725
C        4.7569219337   -0.7754765911   -0.2411152374
C        3.4171704577   -0.3011964787   -0.1714860183
C        0.0728700914   -1.8394664969   -0.3799359326
C        0.7889048523   -2.4235800600   -1.6057980368
C        0.9714891528   -0.6536312855   -0.0396869948
C        2.2821821423   -2.2401607550   -1.2726810751
C        5.0998855843   -2.2496757100   -0.2526824019
N        2.3260923545   -1.1884107634   -0.2220184335
H        6.4232569720    2.2147952079    0.0136615928
H        4.0703169466    3.0326066459    0.2779549788
H        6.8242032500   -0.2187040449   -0.2510960881
H        2.2022119734    1.4619280204    0.1590419306
H       -0.9585986043   -1.5385085658   -0.5829210916
H        0.0679091562   -2.5582997401    0.4464439966
H        0.5351548369   -3.4687960549   -1.8023659883
H        0.5248517608   -1.8432005119   -2.4962895023
H        0.8397027989   -0.2850047758    0.9827740662
H        0.7565135188    0.1791974943   -0.7308270473
H        2.7101821810   -3.1742770279   -0.8989066452
H        2.8588962403   -1.9374537896   -2.1546284603
H        4.4929269124   -2.7959251252    0.4768004220
H        6.1507806811   -2.3898823581    0.0145993790
H        4.9462473487   -2.7227177441   -1.2280237439
27   
torsion grid (15,)
C        5.6082056396    1.3557950516    0.5078933751
C        4.3230012876    1.8438316129    0.7474106204
C        5.7576791720    0.1206233299   -0.1304736234
C        3.2095455669    1.0870065262    0.3739224195
C        4.6583306505   -0.6488207355   -0.5286895114
C        3.3547740254   -0.1656655435   -0.2497993849
C       -0.0000417895   -1.4173348990   -1.1657002223
C        0.6200932201   -2.6804093304   -0.5097578502
C        0.9185557719   -0.2771538771   -0.7106222666
C        1.9870641865   -2.2111459744    0.0367591428
C        4.8820424290   -1.9343892003   -1.2898136605
N        2.2275526394   -0.9267905752   -0.6463177538
H        6.4827594477    1.9337465379    0.7946655611
H        4.1809619747    2.8089457683    1.2276625015
H        6.7574305968   -0.2483551118   -0.3513014474
H        2.2177191832    1.4773748775    0.5749010013
H        0.0283732354   -1.5014184048   -2.2554481694
H       -1.0390141996   -1.2499112544   -0.8687400591
H       -0.0046783736   -3.0699686962    0.2986270581
H        0.7415429325   -3.4822198625   -1.2426157252
H        0.5870738909    0.0951993541    0.2758566779
H        0.9440764858    0.5701422757   -1.4019114366
H        1.9409578614   -2.0616946070    1.1286726541
H        2.7873811666   -2.9238341549   -0.1642697209
H        4.9022991675   -2.8088087378   -0.6278313403
H        5.8408090765   -1.9065763108   -1.8156383798
H        4.0861832463   -2.0943497310   -2.0233856802
27   
torsion grid (30,)
C        5.6160199218    1.3479920527    0.5244104674
C        4.3373954783    1.7949125336    0.8653397101
C        5.7558726230    0.1584104210   -0.1968039207
C        3.2185842354    1.0449327868    0.4947575310
C        4.6467859714   -0.6011608133   -0.5900851307
C        3.3536867702   -0.1472121509   -0.2372450278
C        0.0446286141   -1.4438477415   -1.2524756287
C        0.5875494100   -2.6347551327   -0.4157678119
C        0.9421821554   -0.2664853631   -0.8491577250
C        1.9336342878   -2.1369335899    0.1617849966
C        4.8363077774   -1.8652485784   -1.3929864364
N        2.2252350264   -0.9220960307   -0.6107725195
H        6.4946573224    1.9219528829    0.8072236690
H        4.2086306052    2.7186482875    1.4242557153
H        6.7502631144   -0.1831716420   -0.4777068899
H        2.2283402093    1.3940746058    0.7713664073
H        0.1620667763   -1.6461259452   -2.3205912637
H       -1.0129884735   -1.2399980840   -1.0630985564
H       -0.0980271835   -2.9101166814    0.3904203847
H        0.7266183612   -3.5206128235   -1.0407298082
H        0.5327055097    0.2171278382    0.0570574499
H        1.0430920468    0.4989130301   -1.6239798117
H        1.8359017910   -1.9029015351    1.2359623638
H        2.7387545209   -2.8682491827    0.0574658305
H        4.8728966847   -2.7526194469   -0.7486177971
H        5.7747679723   -1.8337480672   -1.9541429270
H        4.0070108361   -2.0056831920   -2.0920750725
27   
torsion grid (45,)
C        5.6084418735    1.3189880299    0.5564920288
C        4.3359654829    1.6847949531    1.0039462625
C        5.7550025694    0.2019656501   -0.2713309633
C        3.2260352200    0.9287074641    0.6189897544
C        4.6509591823   -0.5622749836   -0.6738035981
C        3.3666886743   -0.1802141327   -0.2295997081
C        0.0902492080   -1.5204783553   -1.3078295942
C        0.5409164148   -2.6010130208   -0.2854491848
C        1.0084932927   -0.3246780441   -1.0192423734
C        1.8661074976   -2.0644411814    0.3055793959
C        4.8295331954   -1.7720694011   -1.5583337461
N        2.2479294628   -0.9811774279   -0.6075855513
H        6.4806457326    1.8987643061    0.8478840124
H        4.2087177788    2.5471126932    1.6538635810
H        6.7465391178   -0.0802578453   -0.6195050548
H        2.2371221368    1.2068330250    0.9738539907
H        0.2587842250   -1.8735604323   -2.3288718425
H       -0.9680519101   -1.2616904806   -1.2123455200
H       -0.2010144745   -2.7469443926    0.5046126862
H        0.6864166950   -3.5664121335   -0.7768169144
H        0.5662941215    0.3029236446   -0.2231876049
H        1.1867692509    0.3139085156   -1.8893352169
H        1.7102121693   -1.6849736908    1.3309890489
H        2.6557180909   -2.8208131252    0.3532674463
H        4.7574533677   -2.7016616653   -0.9803414510
H        5.8091594763   -1.7615227481   -2.0447763914
H        4.0477650853   -1.8144696479   -2.3211045944
27   
torsion grid (60,)
C        5.6585472167    1.2463564613    0.5495675376
C        4.4023456157    1.4698357431    1.1206880789
C        5.8252452551    0.2137737150   -0.3779704237
C        3.3272043336    0.6560521811    0.7553143460
C        4.7546814880   -0.6102564066   -0.7549417131
C        3.4909161370   -0.3775969719   -0.1777659465
C        0.2188251106   -1.7171801587   -1.3007103714
C        0.6034342435   -2.7118219008   -0.1667269850
C        1.2359755538   -0.5700867910   -1.1701765327
C        1.8474753109   -2.0880144465    0.4952326796
C        4.9459614451   -1.7249556846   -1.7556379454
N        2.3976660603   -1.2271227195   -0.5596736515
H        6.5042909876    1.8718425087    0.8242511052
H        4.2617059260    2.2690599144    1.8442583610
H        6.8049093274    0.0432358238   -0.8193766632
H        2.3486678306    0.8252660942    1.1984849835
H        0.3160423259   -2.1987884799   -2.2771670937
H       -0.8090775254   -1.3546222323   -1.2118383046
H       -0.2033257540   -2.8503295061    0.5584373987
H        0.8417802899   -3.6935180672   -0.5840411927
H        0.8264773649    0.2330521209   -0.5308796942
H        1.5138401237   -0.1208676107   -2.1285542348
H        1.5570845945   -1.5080896502    1.3898657980
H        2.5917395293   -2.8266381973    0.8088137596
H        4.7185086003   -2.6993037061   -1.3115406174
H        5.9759030840   -1.7454139653   -2.1235283123
H        4.2719200643   -1.6093828584   -2.6096239089
27   
torsion grid (75,)
C        5.6249396519    1.2967267486    0.5910738247
C        4.4108779861    1.4325577857    1.2698297943
C        5.7546810110    0.3272868347   -0.4079237845
C        3.3410247176    0.5957001899    0.9420729232
C        4.6918794238   -0.5228840570   -0.7446638346
C        3.4733376309   -0.3881865156   -0.0483262574
C        0.2316214486   -1.6748568804   -1.3174361182
C        0.4938764693   -2.5952099730   -0.0904976007
C        1.3425128970   -0.6073635005   -1.2478666973
C        1.6467421466   -1.9089731190    0.6591983184
C        4.8412979688   -1.5583086673   -1.8333684714
N        2.3817542129   -1.2415970196   -0.4217599028
H        6.4657600073    1.9405543002    0.8368014796
H        4.2956374270    2.1865507470    2.0446352444
H        6.7007059315    0.2249009129   -0.9354712477
H        2.3945079858    0.7061061390    1.4649452283
H        0.2980896019   -2.2448371529   -2.2476802104
H       -0.7590112765   -1.2127592884   -1.2861722779
H       -0.3883255832   -2.7159002981    0.5443887084
H        0.8032707695   -3.5897628215   -0.4224284139
H        0.9646659583    0.3172175955   -0.7759758898
H        1.7477213531   -0.3352472701   -2.2274769726
H        1.2406760178   -1.1968250568    1.3997204989
H        2.3016944090   -2.6058948590    1.1904344881
H        4.5134005769   -2.5421403338   -1.4872079890
H        5.8804971662   -1.6256424332   -2.1679867221
H        4.2219364432   -1.3123593507   -2.7034047303
27   
torsion grid (90,)
C        5.6436187199    1.2840278525    0.6015141180
C        4.4848283246    1.3416129380    1.3794439129
C        5.7117510279    0.3828229570   -0.4651644974
C        3.4078002688    0.5027812206    1.0810772663
C        4.6453700839   -0.4718665665   -0.7739246189
C        3.4785321719   -0.4147069575    0.0210936504
C        0.3076554025   -1.7640089181   -1.3562360292
C        0.4460811516   -2.5448118136   -0.0180036030
C        1.4392644833   -0.7166928738   -1.3129105780
C        1.5317006970   -1.7774045947    0.7518162850
C        4.7425567998   -1.4338288890   -1.9330452264
N        2.3840287951   -1.2649422534   -0.3252833132
H        6.4888543681    1.9301149902    0.8246393580
H        4.4148790316    2.0390386687    2.2106390894
H        6.6165655994    0.3334083584   -1.0676443956
H        2.5079597688    0.5573684524    1.6865229527
H        0.4301950581   -2.4349350688   -2.2103445759
H       -0.6684469777   -1.2812629472   -1.4558547481
H       -0.4915697151   -2.5949794503    0.5424709905
H        0.7766187371   -3.5693003658   -0.2083408893
H        1.0539466582    0.2638394474   -0.9820261143
H        1.9307119174   -0.5698820345   -2.2787658742
H        1.0607632093   -0.9714939501    1.3425855767
H        2.1143150348   -2.4011057600    1.4358596910
H        4.2648953256   -2.3857460189   -1.6870456835
H        5.7861880183   -1.6128486614   -2.2072864674
H        4.2325572075   -1.0417561238   -2.8219212291
27   
torsion grid (105,)
C        5.6203172825    1.2597982133    0.6644073744
C        4.5216962667    1.2691539903    1.5256227128
C        5.6020889166    0.4237322431   -0.4563052142
C        3.4152508238    0.4608077692    1.2514676230
C        4.5098563690   -0.4037882875   -0.7431298970
C        3.3911218700   -0.3789293679    0.1248156464
C        0.2176531164   -1.7671742401   -1.2264805196
C        0.3003116515   -2.4099260939    0.1857301829
C        1.3987048729   -0.7733334581   -1.2743453761
C        1.3568764034   -1.5670944550    0.9117796007
C        4.5510276379   -1.3230435165   -1.9402773066
N        2.2746419247   -1.2074011290   -0.1707912340
H        6.4868019513    1.8837503456    0.8673881571
H        4.5191397639    1.9061523627    2.4067895601
H        6.4658233260    0.3969412001   -1.1178598033
H        2.5659572784    0.4819442242    1.9264697909
H        0.3103249054   -2.5269278137   -2.0068050195
H       -0.7315477880   -1.2485121616   -1.3867259201
H       -0.6584879040   -2.4063544544    0.7115252947
H        0.6393199692   -3.4467486341    0.1125265205
H        1.0490431085    0.2592696474   -1.1042623786
H        1.9305880988   -0.7889593381   -2.2276694072
H        0.8724248948   -0.6831777707    1.3647142508
H        1.8880786371   -2.1054537475    1.7018995322
H        4.0087585830   -2.2502358565   -1.7340328739
H        5.5835346061   -1.5671127558   -2.2065272415
H        4.0890502357   -0.8633811978   -2.8228988569
27   
torsion grid (120,)
C        5.5680273019    1.3155846447    0.6978832140
C        4.5037687049    1.2369456181    1.5971093707
C        5.5537555757    0.5018708057   -0.4390440009
C        3.4335679454    0.3765962818    1.3413507371
C        4.5021070532   -0.3819059349   -0.7080867822
C        3.4040300879   -0.4325699508    0.1891698733
C        0.1253007171   -1.6431571478   -0.9947438379
C        0.3198153368   -2.4500322915    0.3002052495
C        1.5382748343   -1.1095457774   -1.3190483616
C        1.3940189225   -1.6318840410    1.0134867432
C        4.5895196942   -1.3016213394   -1.9031765287
N        2.3208262923   -1.3007137794   -0.0716642403
H        6.4047566399    1.9834135931    0.8845617211
H        4.4967734132    1.8483548833    2.4962829968
H        6.3960329467    0.5318071850   -1.1275524724
H        2.6131472887    0.3390455755    2.0493194187
H       -0.2907980686   -2.2365691102   -1.8133164246
H       -0.5599618094   -0.8095795667   -0.8091768266
H       -0.5973157176   -2.5467696640    0.8879900008
H        0.6985080159   -3.4535751198    0.0798423301
H        1.5151473089   -0.0514336920   -1.6115708445
H        1.9887839142   -1.6690383075   -2.1436383922
H        0.9248052001   -0.7410730683    1.4665239038
H        1.9175149675   -2.1766498843    1.8055024246
H        4.2127672338   -2.2983810321   -1.6523920060
H        5.6265882569   -1.3975114632   -2.2368575784
H        4.0050521914   -0.9351249695   -2.7551134291
27   
torsion grid (135,)
C        5.5510519201    1.3099273890    0.7282571797
C        4.5333662010    1.1552084252    1.6695914737
C        5.4930719892    0.5593745560   -0.4499533337
C        3.4628553265    0.2973656023    1.4110609106
C        4.4438786140   -0.3249405689   -0.7266238392
C        3.3749370783   -0.4313996710    0.2056893403
C        0.1294895266   -1.6535795672   -1.0045376995
C        0.2409181489   -2.3735457746    0.3474424713
C        1.5889832586   -1.2908930806   -1.3365405666
C        1.3250776896   -1.5522121911    1.0429831877
C        4.5394877378   -1.2072181158   -1.9518285270
N        2.2880703229   -1.2886719655   -0.0294554236
H        6.3868967985    1.9786821008    0.9145476222
H        4.5619824022    1.7047601179    2.6074902356
H        6.3067119775    0.6346879073   -1.1687019875
H        2.6813697660    0.2053222116    2.1561463979
H       -0.3337452857   -2.2614781026   -1.7865272955
H       -0.4699611248   -0.7441945604   -0.8880550484
H       -0.6973340769   -2.3904834872    0.9087441554
H        0.5800629491   -3.4058590140    0.2085688705
H        1.6657522345   -0.3123048138   -1.8253742811
H        2.0244406611   -2.0348918231   -2.0105092488
H        0.8785413599   -0.6257581383    1.4429639300
H        1.8098760103   -2.0762677737    1.8733184038
H        4.2944522171   -2.2451424543   -1.7030038810
H        5.5580764762   -1.1880959981   -2.3488633267
H        3.8689028698   -0.8970063344   -2.7600520601
27   
torsion grid (150,)
C        5.5961101091    1.2921612301    0.7716233649
C        4.5936277712    1.0973905581    1.7213908583
C        5.5004259990    0.6082510806   -0.4436719472
C        3.5028586980    0.2776547508    1.4325409025
C        4.4314580271   -0.2406401840   -0.7566326267
C        3.3655960733   -0.3687165444    0.1816578919
C        0.1650415242   -1.6889629976   -1.0848604184
C        0.2094904800   -2.2856358475    0.3281839130
C        1.6412456132   -1.3741139701   -1.3794055737
C        1.2660504021   -1.4145237493    1.0089101673
C        4.5358089483   -1.0723801143   -2.0197991270
N        2.2474634057   -1.1718411284   -0.0496912984
H        6.4481343036    1.9335665870    0.9786899112
H        4.6500809808    1.5851001661    2.6917094890
H        6.3059913223    0.7043803592   -1.1689390330
H        2.7325523301    0.1605342573    2.1853093937
H       -0.2719721413   -2.3597206340   -1.8297133491
H       -0.4228740256   -0.7645561688   -1.0775091159
H       -0.7537281029   -2.2538834380    0.8446240669
H        0.5466983991   -3.3274810052    0.2935521437
H        1.7446678659   -0.4771354456   -1.9993655398
H        2.1118136437   -2.2073158831   -1.9117232495
H        0.8082396921   -0.4771097753    1.3676783337
H        1.7354380173   -1.9054523432    1.8685846705
H        4.3609572541   -2.1320572231   -1.8072272551
H        5.5432336488   -0.9845978541   -2.4351606372
H        3.8350951013   -0.7742794051   -2.8053084774
27   
torsion grid (165,)
C        5.6621242225    1.2194955507    0.8227090540
C        4.6459080158    1.0387511405    1.7596065415
C        5.5377076663    0.5863238671   -0.4167739714
C        3.5255648943    0.2755671910    1.4360251332
C        4.4351210621   -0.2025668857   -0.7705765039
C        3.3622809523   -0.3288138030    0.1640043476
C        0.1993046855   -1.7936225629   -1.0982957055
C        0.2094082315   -2.2580616671    0.3632639581
C        1.6797154646   -1.4959436575   -1.3721403829
C        1.2410669620   -1.3243802695    1.0043808961
C        4.5179696446   -0.9432420694   -2.0943502861
N        2.1981458282   -1.0540880536   -0.0709922816
H        6.5408117626    1.8150915280    1.0530744284
H        4.7141570586    1.4906204272    2.7464718692
H        6.3466124968    0.6806759247   -1.1383674175
H        2.7449225815    0.1751168457    2.1798489882
H       -0.2086838326   -2.5356562878   -1.7902631040
H       -0.3915691014   -0.8761689118   -1.1956014160
H       -0.7682007767   -2.1920068432    0.8483305749
H        0.5516439133   -3.2969031735    0.4272058626
H        1.7953394338   -0.7167528576   -2.1291632910
H        2.1882763610   -2.3989990180   -1.7321232665
H        0.7599246177   -0.3972012509    1.3553886446
H        1.7367252309   -1.7850444821    1.8671249762
H        4.3415638102   -2.0155116641   -1.9708984744
H        5.5227505495   -0.8306715020   -2.5097450733
H        3.8176034888   -0.5764222220   -2.8500361138
27   
torsion grid (180,)
C        5.9657243976    1.4027078487   -0.2935544855
C        4.9706231573    1.8457414286   -1.1626743271
C        5.7313541007    0.2285272290    0.4253985991
C        3.7848907682    1.1267646120   -1.2948450992
C        4.5534771267   -0.5243537099    0.3191411009
C        3.5299943383   -0.0647146576   -0.5670299830
C        0.3273767765   -1.9523375320   -0.5446742768
C        0.3522464835   -1.3668309887   -1.9610285634
C        1.8059846577   -1.9224327804   -0.1479218231
C        1.4201212512   -0.2680050912   -1.8677967865
C        4.4807638626   -1.7787244593    1.1744790360
N        2.3033880164   -0.6923573851   -0.7729377464
H        6.8988753692    1.9464970202   -0.1777922150
H        5.1065021027    2.7543462931   -1.7446130591
H        6.5029252109   -0.1335837295    1.1016078852
H        3.0300532378    1.5146060454   -1.9667286112
H       -0.2494665077   -1.3045692839    0.1247193747
H       -0.0955737761   -2.9596430433   -0.4955993998
H        0.6665475227   -2.1349305147   -2.6761876811
H       -0.6149664063   -0.9776653853   -2.2899414458
H        2.3175227327   -2.8167426669   -0.5342228847
H        1.9295212608   -1.9003407982    0.9342888415
H        1.9738689483   -0.1646423210   -2.8093799475
H        0.9657776199    0.7087474585   -1.6450799045
H        3.7687693241   -1.6833755650    2.0011685966
H        5.4601107236   -1.9671657574    1.6217792288
H        4.2138314506   -2.6708539228    0.6046266141
