9    
torsion grid (-165,)
N       -0.9588735823    0.5943439231    0.6601229802
N        0.3145454687    0.5088638080    0.0495414287
N        0.6164830879   -0.8822562381   -0.2994100563
O        2.0262697991   -0.9161217821   -0.5674713611
H       -1.6589803422    0.5075555600   -0.0737539295
H       -1.1196295078   -0.1631114821    1.3353131467
H        1.0011879466    0.8103922412    0.7471138459
H        0.5774033015   -1.4368226455    0.5686223717
H        2.0684089767   -0.8504757566   -1.5361637478
9    
torsion grid (-150,)
N       -0.9403811450    0.5794925348    0.7043547669
N        0.2664649087    0.5325374995   -0.0270990275
N        0.5950668571   -0.8577949223   -0.4054800104
O        2.0289853810   -0.9064011488   -0.4606848376
H       -1.7127206208    0.4829913681    0.0488686783
H       -1.0128955204   -0.1755179789    1.3984474208
H        1.0107902614    0.8320138049    0.6097236434
H        0.4157394375   -1.4362854169    0.4295393496
H        2.2157655888   -0.8786681127   -1.4137553049
9    
torsion grid (-135,)
N       -0.9158993494    0.5635383830    0.7469737062
N        0.2156362482    0.5519491734   -0.0943995745
N        0.5868729989   -0.8289707449   -0.5078493475
O        2.0146525589   -0.9068546412   -0.3511837527
H       -1.7486298944    0.4529366463    0.1735710996
H       -0.9004583795   -0.1832189074    1.4534706845
H        1.0077147793    0.8695770931    0.4708259751
H        0.2694553959   -1.4390944324    0.2598626695
H        2.3374707903   -0.9074949421   -1.2673567816
9    
torsion grid (-120,)
N       -0.8854138174    0.5436499332    0.7884780820
N        0.1666427479    0.5664067572   -0.1505969293
N        0.5893396050   -0.7882739688   -0.5991826323
O        1.9825380031   -0.9181703451   -0.2391803425
H       -1.7632607632    0.4060238938    0.2949886031
H       -0.7796160689   -0.1867813950    1.5030122183
H        0.9911178413    0.9334113708    0.3289632461
H        0.1402698616   -1.4375411870    0.0605103507
H        2.4251977387   -0.9463574313   -1.1030779175
9    
torsion grid (-105,)
N       -0.8482433534    0.5198381343    0.8297712507
N        0.1254973399    0.5712801083   -0.1932591968
N        0.5986937471   -0.7333075303   -0.6732068511
O        1.9308889472   -0.9457986258   -0.1233828538
H       -1.7543658113    0.3375769812    0.4085331026
H       -0.6504966952   -0.1850027612    1.5484973924
H        0.9578540430    1.0261378229    0.1804039462
H        0.0312175406   -1.4231932723   -0.1681220610
H        2.4757693902   -0.9951632294   -0.9253200506
9    
torsion grid (-90,)
N       -0.8038499786    0.4973614260    0.8700758468
N        0.0964715760    0.5656836530   -0.2227586603
N        0.6113169577   -0.6692579108   -0.7270219986
O        1.8554718575   -0.9989522896   -0.0078775712
H       -1.7218711854    0.2493053107    0.5138146021
H       -0.5125260560   -0.1719641821    1.5888346154
H        0.8967362925    1.1416104555    0.0242800327
H       -0.0456118449   -1.3896456155   -0.4156839273
H        2.4906775293   -1.0517732195   -0.7397482611
9    
torsion grid (-75,)
N       -0.7506389321    0.4777655008    0.9017463105
N        0.0706281728    0.5677519507   -0.2558734529
N        0.6208508719   -0.6139227944   -0.7711215780
O        1.7456817829   -1.0662404603    0.0892649711
H       -1.6722565669    0.1636170341    0.6111561298
H       -0.3646919162   -0.1685946678    1.5949622137
H        0.8234856578    1.2306752007   -0.1006652927
H       -0.0840302592   -1.3412019121   -0.6378479228
H        2.4777863370   -1.0774822240   -0.5477067001
9    
torsion grid (-60,)
N       -0.6895495349    0.4635852432    0.9232833539
N        0.0368207320    0.5754221714   -0.2998377281
N        0.6296505849   -0.5773736447   -0.8111608861
O        1.6110706101   -1.1279515955    0.1587386490
H       -1.6100296009    0.0890396170    0.7059794085
H       -0.2097026397   -0.1669077311    1.5701943774
H        0.7543273813    1.2863473654   -0.1957083693
H       -0.0936785686   -1.2976105594   -0.8210371836
H        2.4379061841   -1.0721832385   -0.3465369431
9    
torsion grid (-45,)
N       -0.6298213780    0.4547944726    0.9432865105
N       -0.0050616662    0.5792459804   -0.3359878552
N        0.6496258646   -0.5476596315   -0.8458261146
O        1.4810949348   -1.1909346935    0.1959347681
H       -1.5463541945    0.0340543192    0.8020094666
H       -0.0711565704   -0.1612691753    1.5380076291
H        0.6786957245    1.3286298573   -0.2723695305
H       -0.0690748995   -1.2583477662   -0.9887068066
H        2.3788673330   -1.0661457352   -0.1524333888
9    
torsion grid (-30,)
N       -0.5823895327    0.4576327840    0.9628975916
N       -0.0549023602    0.5755004133   -0.3608366213
N        0.6855648731   -0.5208406627   -0.8690899947
O        1.3717494798   -1.2542237538    0.2052897567
H       -1.4848223208   -0.0117481555    0.8966528589
H        0.0411532524   -0.1320639859    1.5181319183
H        0.5880175147    1.3637103324   -0.3375482189
H       -0.0071137911   -1.2182301670   -1.1449842626
H        2.3095580329   -1.0873691770    0.0134016507
9    
torsion grid (-15,)
N       -0.5505245284    0.4694986958    0.9794801693
N       -0.1099641890    0.5650199461   -0.3759015308
N        0.7338495728   -0.4957739922   -0.8787644143
O        1.2776930141   -1.3159010370    0.1984027058
H       -1.4198165252   -0.0640796796    0.9851730901
H        0.1339348267   -0.0666858171    1.5167906150
H        0.4849235446    1.3909036725   -0.3967263806
H        0.0837932844   -1.1669801333   -1.2900014984
H        2.2329261482   -1.1436340273    0.1454619224
9    
torsion grid (0,)
N       -0.8070668978    0.6232396732    0.3068681559
N        0.3919027279    0.2771844332    0.9902372071
N        1.3170419735   -0.6512518916    0.3004685113
O        0.8048076862   -1.0481640551   -0.9938876920
H       -0.6037619843    1.4282929572   -0.2852666332
H       -1.0815943215   -0.1336927059   -0.3227184881
H        0.0749161418   -0.2740462151    1.7855602520
H        2.0790889078   -0.0401281861    0.0044895045
H        0.6914809146   -2.0090663819   -0.9018361388
9    
torsion grid (15,)
N       -0.8124180705    0.6157676424    0.3049661007
N        0.4023378461    0.3294419661    0.9695593038
N        1.2918241328   -0.7069120470    0.3136810592
O        0.8719097515   -0.9386361204   -1.0419817715
H       -0.6141245843    1.2962651116   -0.4261778628
H       -1.1851594877   -0.2122379019   -0.1652194984
H        0.1199881937   -0.1557046939    1.8195282610
H        2.1466340788   -0.1726271520    0.1532160356
H        0.6458232877   -1.8829891771   -1.0436569492
9    
torsion grid (30,)
N       -0.8158053696    0.6024495901    0.2937873003
N        0.4176740638    0.3738777937    0.9332798066
N        1.2490524943   -0.7557769769    0.3208369402
O        0.9521857693   -0.8300043962   -1.0796166081
H       -0.6319498537    1.1369853878   -0.5512445353
H       -1.2687669661   -0.2694250287    0.0039719502
H        0.1804236269   -0.0276939345    1.8395609538
H        2.1760042551   -0.3268532851    0.3038627303
H        0.6079971283   -1.7311915225   -1.1805238593
9    
torsion grid (45,)
N       -0.8286591889    0.5825074978    0.2855281771
N        0.4362245117    0.4093236220    0.8801109348
N        1.1856144459   -0.7921451578    0.3239149743
O        1.0403602218   -0.7424788454   -1.1019013342
H       -0.6761368764    0.9983887292   -0.6289796375
H       -1.3102850243   -0.3122491564    0.1414321631
H        0.2571807522    0.1087406527    1.8385731984
H        2.1565660581   -0.4933936967    0.4446265565
H        0.6059502481   -1.5863260175   -1.2993903540
9    
torsion grid (60,)
N       -0.8509464910    0.5691823934    0.2970881555
N        0.4560571118    0.4349957833    0.8136615168
N        1.1071922904   -0.8181875453    0.3166263395
O        1.1353778766   -0.6883834810   -1.1157567132
H       -0.7545209620    0.9153385860   -0.6538041768
H       -1.3278034252   -0.3393863514    0.2530595518
H        0.3525075735    0.2416248209    1.8113621236
H        2.0883936863   -0.6599301851    0.5663737676
H        0.6605574878   -1.4828863931   -1.4046958863
9    
torsion grid (75,)
N       -0.8831959691    0.5666852320    0.3300895200
N        0.4680237055    0.4498050936    0.7382513884
N        1.0325652006   -0.8361397642    0.2943383839
O        1.2577560021   -0.6764976359   -1.1228710223
H       -0.8668951820    0.8878512107   -0.6348996824
H       -1.3434545400   -0.3507076536    0.3491523706
H        0.4552561893    0.3563903231    1.7560278408
H        1.9868504615   -0.8038349064    0.6692152740
H        0.7599092802   -1.4211842716   -1.4953893944
9    
torsion grid (90,)
N       -0.9198022257    0.5738809573    0.3792891418
N        0.4674932373    0.4544534270    0.6594130794
N        0.9690737859   -0.8489672870    0.2541024928
O        1.4048054819   -0.6975364568   -1.1193973138
H       -0.9966661618    0.8926855878   -0.5840500471
H       -1.3681547499   -0.3462020842    0.4428156676
H        0.5572162250    0.4534862318    1.6768380211
H        1.8625943678   -0.9270907550    0.7507044269
H        0.8902551877   -1.3823419930   -1.5758007901
9    
torsion grid (105,)
N       -0.9518347227    0.5834415023    0.4318948772
N        0.4571604439    0.4505184214    0.5805325273
N        0.9147125604   -0.8594293240    0.2020738881
O        1.5628843122   -0.7358912783   -1.0928708158
H       -1.1215902390    0.8881176906   -0.5244598283
H       -1.3968145581   -0.3315548178    0.5506020961
H        0.6570862676    0.5523753787    1.5746731628
H        1.7150213867   -1.0485442475    0.8108182652
H        1.0301896971   -1.3266656977   -1.6493494941
9    
torsion grid (120,)
N       -0.9737231509    0.5922960940    0.4793232233
N        0.4413651934    0.4388484916    0.5017885012
N        0.8645970382   -0.8716401731    0.1443175722
O        1.7156223884   -0.7870623876   -1.0340298956
H       -1.2333027439    0.8484890521   -0.4713532599
H       -1.4202360559   -0.3046779000    0.6872701401
H        0.7558692243    0.6571073029    1.4440537751
H        1.5391107610   -1.1779703476    0.8469714694
H        1.1775124937   -1.2230225045   -1.7144268472
9    
torsion grid (135,)
N       -0.9822784381    0.6030316355    0.5159338756
N        0.4267272551    0.4316424270    0.4157657998
N        0.8125168446   -0.8905472354    0.0810689452
O        1.8364952414   -0.8503033130   -0.9494049716
H       -1.3344310517    0.7706038316   -0.4248239525
H       -1.4186768745   -0.2590048089    0.8513505368
H        0.8390424892    0.7350290914    1.2948966175
H        1.3462177043   -1.2929689246    0.8529743505
H        1.3412019779   -1.0751150759   -1.7538465227
9    
torsion grid (150,)
N       -0.9815106368    0.6133130563    0.5447238144
N        0.4111223115    0.4377864003    0.3190686537
N        0.7542992292   -0.9106951251    0.0035622975
O        1.9157974220   -0.9054960746   -0.8591944094
H       -1.4288194268    0.6735990627   -0.3681878642
H       -1.3792449132   -0.2022465938    1.0176249069
H        0.9006435058    0.7714637920    1.1484808285
H        1.1484592221   -1.3735294979    0.8266019677
H        1.5260684344   -0.9318273920   -1.7487655168
9    
torsion grid (165,)
N       -0.9776067503    0.6153381296    0.5768354704
N        0.3878010198    0.4554779706    0.2224745908
N        0.6978307954   -0.9164751043   -0.0905445201
O        1.9694514550   -0.9293397113   -0.7677826108
H       -1.5157759014    0.5929536418   -0.2874075148
H       -1.3090939205   -0.1625098850    1.1552505360
H        0.9465749016    0.7865771373    1.0108487917
H        0.9490896912   -1.4195230997    0.7676926427
H        1.7185438574   -0.8501314512   -1.7034527074
9    
torsion grid (180,)
N       -0.9704651438    0.6080355692    0.6157739002
N        0.3556982689    0.4809871874    0.1325431342
N        0.6506151471   -0.9050151553   -0.1935964340
O        2.0059209942   -0.9292750389   -0.6704415740
H       -1.5922164289    0.5399870045   -0.1876665985
H       -1.2197263261   -0.1519194617    1.2583973439
H        0.9798196128    0.7959361162    0.8796675632
H        0.7559634310   -1.4364220293    0.6809494138
H        1.9012055929   -0.8299465644   -1.6317120701
