18   
torsion grid (-165,)
C       -0.7381364108   -0.6422087150   -1.1715266775
C        0.1097411777    1.3485765851    0.1264809348
C       -0.6431581046    0.4727060006    1.0881305633
C        2.1819633437   -0.8332688779    1.3789129612
C        1.4419685795   -2.1245583701    1.0404273124
C        0.0910076271   -0.1696149434   -0.0785080077
C        1.3690733099   -0.9549642158    0.1110398540
N       -1.4260873273   -0.9952856969   -2.0417054108
O        2.0916995571   -1.1318767365   -1.0874224087
H       -0.4552149961    1.9607774296   -0.5682219912
H        1.0562847334    1.7665643731    0.4562059628
H       -0.2343815620    0.3182065995    2.0808382512
H       -1.7265693865    0.4720666729    1.0393241741
H        1.8246388892   -0.2347090952    2.2115269379
H        3.2591806988   -0.8341127448    1.2466303115
H        2.0308610115   -2.9722814475    0.7063782431
H        0.5543903372   -2.3678233953    1.6161189158
H        2.3735279276   -0.2558214625   -1.3996871523
18   
torsion grid (-150,)
C       -0.7917804195   -0.7492190853   -1.0407942452
C        0.1114252973    1.3679454684    0.0145198642
C       -0.5871129590    0.5786546495    1.0852561072
C        2.1287377772   -0.9282310268    1.4490604371
C        1.4332888300   -2.1783354736    0.9263496563
C        0.0974070909   -0.1599674932   -0.0569321482
C        1.3932335072   -0.9136239632    0.1269084655
N       -1.5257988305   -1.2126787331   -1.8164302845
O        2.1810758358   -0.9553333517   -1.0427341434
H       -0.4879679929    1.9158170934   -0.7045466751
H        1.0668450705    1.8199170480    0.2659171006
H       -0.1296386844    0.5198548410    2.0661913037
H       -1.6715994957    0.5674683774    1.0871046675
H        1.7138753044   -0.4318642229    2.3204946113
H        3.2117577185   -0.9022338162    1.3809375793
H        2.0539654980   -2.9774628547    0.5350342277
H        0.5168129290   -2.4929183512    1.4157797860
H        2.4462629286   -0.0454171459   -1.2571735363
18   
torsion grid (-135,)
C       -0.3417829923   -0.0836468499   -1.5117207967
C       -0.0017051520    1.1516206239    0.6758190881
C       -0.9731823969    0.0330471253    0.9166921877
C        1.3892500780   -2.0052005511    1.2421224956
C        1.1963972648   -2.5029897656   -0.1806811144
C        0.1177784180   -0.1363031675   -0.1366364889
C        1.3160981345   -1.0329274556    0.0822259605
N       -0.7343304570   -0.0523868417   -2.6074005643
O        2.5304509354   -0.4783443971   -0.3742363309
H       -0.3449161825    2.0435569325    0.1630382984
H        0.7684933483    1.3167851831    1.4244405068
H       -0.8752630975   -0.5432819195    1.8293776323
H       -1.9882586378    0.1469696264    0.5518741871
H        0.5583864440   -2.0949946907    1.9343676815
H        2.3718175302   -2.1382033112    1.6843510053
H        2.0416864839   -2.9717856023   -0.6732348957
H        0.2199815405   -2.8863388721   -0.4601305171
H        2.7294246142    0.3005244774    0.1711628512
18   
torsion grid (-120,)
C       -0.4441570365   -0.2214025934   -1.4557968052
C        0.0208479338    1.2148652499    0.5781172628
C       -0.9168792409    0.1187567933    0.9862000311
C        1.3167366429   -2.0979468121    1.1869054289
C        1.2582092705   -2.4607261272   -0.2846166027
C        0.1099276674   -0.1390109392   -0.1185159026
C        1.3236719232   -1.0181367078    0.1217011045
N       -0.9099007767   -0.3071374934   -2.5196713024
O        2.5602578381   -0.4114389129   -0.1842532766
H       -0.3639722831    2.0500098244    0.0031985665
H        0.8331976193    1.4642412868    1.2552025374
H       -0.7412830682   -0.3760335635    1.9349454518
H       -1.9568266933    0.1893447228    0.6858433782
H        0.4238374810   -2.2495951909    1.7852184892
H        2.2554593510   -2.2678436416    1.7057368984
H        2.1548945942   -2.8645922035   -0.7425646639
H        0.3205259766   -2.8316836956   -0.6863292331
H        2.7357786766    0.2744305483    0.4801098242
18   
torsion grid (-105,)
C       -0.5663661670   -0.3565734823   -1.3764667423
C        0.0370611932    1.2695047097    0.4589867452
C       -0.8494064990    0.2188130256    1.0537805313
C        1.2442083197   -2.1809367215    1.1083591942
C        1.3424276825   -2.4073048489   -0.3877555258
C        0.0895518252   -0.1459966094   -0.1022832703
C        1.3223852949   -1.0065121588    0.1533063138
N       -1.1114620135   -0.5443514896   -2.3886292506
O        2.5626692432   -0.3428859199    0.0371091349
H       -0.4058682543    2.0353826060   -0.1681573573
H        0.9057485229    1.5964108164    1.0219066754
H       -0.5824246270   -0.1904082768    2.0228490758
H       -1.9129175328    0.2551878631    0.8422550716
H        0.2951778636   -2.3880120597    1.5939397651
H        2.1270670415   -2.3901363484    1.7057565201
H        2.2947781566   -2.7432306135   -0.7839810783
H        0.4642874982   -2.7649949240   -0.9155598130
H        2.7234083281    0.1521449762    0.8560151967
18   
torsion grid (-90,)
C       -0.7009550521   -0.4934345470   -1.2613712433
C        0.0547571270    1.3111854629    0.3188083462
C       -0.7662755150    0.3460204073    1.1188674943
C        1.1799296754   -2.2687581325    1.0060458573
C        1.4521374991   -2.3373734189   -0.4881609931
C        0.0520703226   -0.1631008832   -0.0712900355
C        1.3036904297   -1.0041688230    0.1862425113
N       -1.3176902154   -0.7696514102   -2.2104356224
O        2.5083156922   -0.2757883933    0.3082940683
H       -0.4567064086    1.9965771228   -0.3481846462
H        0.9864553114    1.6848826017    0.7285929116
H       -0.4009301175    0.0382858664    2.0945762093
H       -1.8463786769    0.3713460683    1.0180899012
H        0.1908571612   -2.5478133358    1.3582176927
H        1.9988421205   -2.5153010844    1.6764560465
H        2.4592983875   -2.5919484454   -0.8007351285
H        0.6580649231   -2.6791929362   -1.1436490606
H        2.6248432118   -0.0356655751    1.2410668773
18   
torsion grid (-75,)
C       -0.8176247356   -0.6210229391   -1.1142593732
C        0.0779473744    1.3302167212    0.1809163102
C       -0.6784501763    0.4829462310    1.1623543468
C        1.1325318827   -2.3654756149    0.8927139425
C        1.5596802975   -2.2523632401   -0.5673249743
C        0.0192338097   -0.1833870373   -0.0200615366
C        1.2763505390   -1.0160317945    0.2321519629
N       -1.4949116138   -0.9785106074   -1.9922693857
O        2.4177674382   -0.2585733399    0.5824089994
H       -0.4893551401    1.9391693934   -0.5145489987
H        1.0491662540    1.7212156459    0.4604852229
H       -0.2307542850    0.2910889058    2.1340031003
H       -1.7627911122    0.5195781219    1.1583850184
H        0.1280767287   -2.7223963441    1.1023883493
H        1.8905998792   -2.6576244010    1.6142530162
H        2.6056630895   -2.4298533340   -0.7941386186
H        0.8553953815   -2.5541624880   -1.3351377455
H        2.4418002646   -0.1787133348    1.5491115501
18   
torsion grid (-60,)
C       -0.2779318022    0.0920162869   -1.5625821147
C       -0.0861573595    1.1580257155    0.7002475660
C       -0.9679885140   -0.0474057862    0.8716132172
C        1.3464612697   -2.3736016496   -0.4158983244
C        2.2495630792   -1.3495060705   -1.0997620510
C        0.1297352624   -0.0685637400   -0.1853784248
C        1.3640331404   -0.9350926346    0.0365482836
N       -0.6022899378    0.2176900659   -2.6744328038
O        2.0333747711   -0.6587376433    1.2509077100
H       -0.5068837019    2.0385072174    0.2268195591
H        0.6895928452    1.3379717032    1.4350595319
H       -0.8055165713   -0.6837827632    1.7371924763
H       -1.9965974169    0.0033164988    0.5308047718
H        0.4766310306   -2.7264861043   -0.9626363225
H        1.8209391957   -3.1086350646    0.2282864743
H        3.3099995416   -1.3902240784   -0.8742396194
H        1.9945152969   -1.0343635921   -2.1059367440
H        1.6658016010   -1.2391730446    1.9357930180
18   
torsion grid (-45,)
C       -0.3866097289   -0.0735394164   -1.5214769388
C       -0.0259970473    1.1967294391    0.6203061010
C       -0.9388004932    0.0451071846    0.9425118748
C        1.3865927020   -2.3670056908   -0.5348193006
C        2.3006056086   -1.2530137343   -1.0388537414
C        0.1015693355   -0.1085787285   -0.1613925030
C        1.3232379462   -0.9858251455    0.0668608544
N       -0.7740753697   -0.0507114699   -2.6198382224
O        1.8963390262   -0.8104424130    1.3463558359
H       -0.4391784191    2.0511026757    0.0952741184
H        0.7880933978    1.4046383194    1.3051425317
H       -0.7557729879   -0.5069941100    1.8592636267
H       -1.9798465181    0.1035043600    0.6434626374
H        0.5732300299   -2.6868480684   -1.1794443938
H        1.8397490355   -3.1506769122    0.0658009952
H        3.3443008071   -1.2914108923   -0.7451125421
H        2.1031111710   -0.8384160012   -2.0219439692
H        1.4807332345   -1.4456640800    1.9503092396
18   
torsion grid (-30,)
C       -0.4976008485   -0.2235312957   -1.4678258571
C        0.0318623495    1.2187321900    0.5349489556
C       -0.9054264706    0.1354209547    0.9935565316
C        1.4343818255   -2.3492480229   -0.6405708973
C        2.3395886631   -1.1656288405   -0.9630590716
C        0.0748200996   -0.1466806846   -0.1428040033
C        1.2821841611   -1.0410575737    0.0948321698
N       -0.9524383991   -0.2923424840   -2.5380856201
O        1.7703229581   -0.9712675429    1.4176045158
H       -0.3724144606    2.0480197296   -0.0353341118
H        0.8843816864    1.4445617929    1.1663011927
H       -0.6968261373   -0.3404643028    1.9458643231
H       -1.9561566812    0.2102582726    0.7347248728
H        0.6795187671   -2.6283818504   -1.3691166637
H        1.8736497121   -3.1745012863   -0.0872990499
H        3.3643698947   -1.2061210289   -0.6090912982
H        2.1874485576   -0.6530748351   -1.9077571542
H        1.2956160526   -1.6327378756    1.9455173693
18   
torsion grid (-15,)
C       -0.6182637316   -0.3608868386   -1.4000940099
C        0.0828778710    1.2289775067    0.4365668651
C       -0.8601824680    0.2230758374    1.0340655329
C        1.4896153984   -2.3164713787   -0.7376668016
C        2.3750691873   -1.0857464260   -0.8696584162
C        0.0459903918   -0.1858949069   -0.1285853693
C        1.2426151011   -1.0969410631    0.1171634366
N       -1.1482250484   -0.5080092398   -2.4271059681
O        1.6458159584   -1.1469989694    1.4679146846
H       -0.3233175666    2.0275702645   -0.1748887624
H        0.9776213576    1.4719311582    1.0007660903
H       -0.6096867955   -0.1796481246    2.0090239721
H       -1.9204758312    0.3138845132    0.8238352544
H        0.7975323640   -2.5418355836   -1.5426868191
H        1.9145064178   -3.1810007672   -0.2357020326
H        3.3758299415   -1.1373699819   -0.4534897666
H        2.2667198406   -0.4756178163   -1.7613576375
H        1.1032393422   -1.8170628677    1.9143059510
18   
torsion grid (0,)
C       -0.7481564786   -0.4928444383   -1.3139529675
C        0.1183160256    1.2342735207    0.3152248746
C       -0.7934830456    0.3115684668    1.0689345167
C        1.5466580159   -2.2604265562   -0.8268974756
C        2.4146623072   -1.0140515720   -0.7486751488
C        0.0140833105   -0.2258100218   -0.1155219221
C        1.2071049949   -1.1469593429    0.1349882654
N       -1.3559095582   -0.7097906409   -2.2840981554
O        1.5110499307   -1.3455863702    1.4981884110
H       -0.3166276090    1.9858061269   -0.3351851780
H        1.0601801783    1.5037851297    0.7833716270
H       -0.4725627117   -0.0172020581    2.0507096138
H       -1.8647662361    0.4101923698    0.9297045246
H        0.9249695264   -2.4047739907   -1.7045626209
H        1.9460782697   -3.1696203451   -0.3871435852
H        3.3817668930   -1.1008918707   -0.2640409190
H        2.3613557827   -0.3048732779   -1.5695147970
H        0.9025621346   -2.0208398130    1.8408771400
18   
torsion grid (15,)
C       -0.8782272879   -0.6205648531   -1.2058926711
C        0.1380798515    1.2329119680    0.1749314720
C       -0.7044546139    0.4031489759    1.0938312206
C        1.6028263085   -2.1782792756   -0.9056011306
C        2.4536983629   -0.9544264270   -0.6008660385
C       -0.0181095679   -0.2642118138   -0.0999323694
C        1.1747432702   -1.1880744748    0.1503442024
N       -1.5627595157   -0.9060872806   -2.1046838655
O        1.3659128279   -1.5615038094    1.4988988794
H       -0.3518410675    1.9230641021   -0.5040963354
H        1.1234699456    1.5322139276    0.5188976053
H       -0.2945015310    0.1459539502    2.0639575137
H       -1.7831785739    0.5080049584    1.0465898874
H        1.0583994165   -2.2120357577   -1.8439391619
H        1.9679815393   -3.1355821899   -0.5460489613
H        3.3757899013   -1.1055039860   -0.0486894232
H        2.4674513980   -0.1496847434   -1.3299813828
H        0.7020010662   -2.2373879546    1.7146867625
18   
torsion grid (30,)
C       -0.2086448123    0.0921951229   -1.5319937925
C       -0.1052918103    1.1571476612    0.7550310548
C       -1.0012055446   -0.0359807722    0.8688908785
C        2.4438569850   -1.0913139869   -0.8756763348
C        2.6891124229   -0.3840818550    0.4488386910
C        0.1480651357   -0.0620640300   -0.1382586488
C        1.3403700094   -0.9708477905    0.1462883083
N       -0.4822315934    0.2190152791   -2.6576300193
O        1.0421779579   -2.1277365048    0.9024152178
H       -0.4881050917    2.0539242410    0.2787557913
H        0.6321317084    1.3199026659    1.5345048679
H       -0.8736279294   -0.6977327275    1.7184995841
H       -2.0075605594    0.0303187982    0.4692668037
H        2.3815903581   -0.4916759592   -1.7786284809
H        2.8807150163   -2.0770730737   -1.0017228618
H        3.2831393057   -0.9025177494    1.1947669270
H        2.7876101653    0.6970247207    0.4365105100
H        0.5556437422   -2.7402772125    0.3260592521
18   
torsion grid (45,)
C       -0.3288846148   -0.0694964254   -1.5169188753
C       -0.0542642163    1.2150775665    0.6408657781
C       -0.9314975430    0.0401749984    0.9430152367
C        2.4887182710   -0.9792115207   -0.8336529271
C        2.6408628387   -0.4520553600    0.5855649714
C        0.1318643059   -0.0872385604   -0.1440386147
C        1.3208688577   -0.9963472584    0.1206751472
N       -0.6841331241   -0.0623094018   -2.6266596924
O        0.9864276811   -2.2440546037    0.6968443106
H       -0.4793040269    2.0575155536    0.1050657440
H        0.7330321726    1.4616643847    1.3449479610
H       -0.7328126605   -0.5387855441    1.8385439015
H       -1.9683642588    0.0694581622    0.6256058235
H        2.4737256952   -0.2627336703   -1.6496282594
H        2.9448908223   -1.9368840712   -1.0635959326
H        3.1839127247   -1.0684371108    1.2948121684
H        2.7457624441    0.6194328909    0.7206012330
H        0.5469400973   -2.7775432025    0.0138697749
18   
torsion grid (60,)
C       -0.4498179244   -0.2245377659   -1.4762573013
C       -0.0078550221    1.2580715391    0.5227085723
C       -0.8584459532    0.1205521461    1.0030596660
C        2.5312951606   -0.8721536710   -0.7774285481
C        2.5820129669   -0.5311728348    0.7055294218
C        0.1150113760   -0.1110959325   -0.1463389919
C        1.3045270669   -1.0189591853    0.0874907857
N       -0.8865995198   -0.3389831188   -2.5503517659
O        0.9491549993   -2.3307009927    0.4773191671
H       -0.4765164741    2.0455402750   -0.0582003897
H        0.8244647858    1.5759036593    1.1404394290
H       -0.5882820564   -0.3711434244    1.9317428707
H       -1.9180798236    0.1285547816    0.7714291472
H        2.5571350738   -0.0534794838   -1.4907148919
H        3.0182909175   -1.7871261016   -1.0993854983
H        3.0787300857   -1.2361337369    1.3641711874
H        2.6775858261    0.5119086029    0.9868829902
H        0.5651339812   -2.7768179290   -0.2961781016
18   
torsion grid (75,)
C       -0.5734120950   -0.3631129050   -1.4160405980
C        0.0384939296    1.2825430406    0.4035385160
C       -0.7817874392    0.2017175465    1.0472209799
C        2.5708216559   -0.7741398742   -0.7072499676
C        2.5098984719   -0.6131678668    0.8058268469
C        0.0968099286   -0.1371986550   -0.1504840785
C        1.2910490183   -1.0438566031    0.0455340475
N       -1.0897877885   -0.5794217856   -2.4377777357
O        0.9366867374   -2.3941830880    0.2584529779
H       -0.4707902521    2.0217830060   -0.2056389813
H        0.9163339144    1.6488270748    0.9238404701
H       -0.4421134424   -0.2088624220    1.9925239794
H       -1.8565927117    0.2078670261    0.9014486811
H        2.6244314957    0.1258627791   -1.3129741871
H        3.1044624747   -1.6338670307   -1.0999756539
H        2.9726840587   -1.3875520409    1.4086064805
H        2.5664078817    0.3871079447    1.2213245947
H        0.6041496280   -2.7521193192   -0.5822586236
18   
torsion grid (90,)
C        0.0825850873    0.3521997705   -1.4561553960
C       -0.2514090984    0.9944126436    0.9702475732
C       -1.1670428691   -0.1627305994    0.6823450515
C        2.6474837128   -0.6007860799    0.5438779838
C        1.7765792059   -1.3125451877    1.5689702683
C        0.1572624024   -0.0448376382   -0.0640063207
C        1.2527985376   -1.0591460554    0.1868116190
N        0.0524272500    0.6337712581   -2.5862301254
O        1.1229598942   -2.2273544602   -0.5916461862
H       -0.5277015232    1.9740145611    0.5950467258
H        0.2975920186    1.0069156700    1.9056761608
H       -1.2176327484   -0.9716459596    1.4039426950
H       -2.0802605897    0.0245676307    0.1278041271
H        2.8166521260    0.4646777348    0.6698939281
H        3.4762094024   -1.1574984945    0.1177610296
H        2.0113528854   -2.3490945809    1.7869510646
H        1.3912943129   -0.7448487523    2.4097197939
H        1.3196393985   -1.9976995005   -1.5160672187
18   
torsion grid (105,)
C       -0.0492451567    0.2377813811   -1.4943904472
C       -0.1741419287    1.0467502125    0.9080419273
C       -1.1129802250   -0.1175294024    0.7546701164
C        2.6287684304   -0.5884863507    0.6613830342
C        1.6928106177   -1.3968879995    1.5419491068
C        0.1596188547   -0.0498096272   -0.0895008642
C        1.2830618861   -1.0460198650    0.1407288100
N       -0.1910344196    0.4333502598   -2.6340881931
O        1.2477613025   -2.1536480106   -0.7265814754
H       -0.4725646153    2.0083791376    0.5044511351
H        0.4432407427    1.1031464399    1.7989771374
H       -1.1216428397   -0.8815088745    1.5248974163
H       -2.0594938162    0.0452633765    0.2505331264
H        2.7605875571    0.4665693058    0.8830889406
H        3.5061948437   -1.0915084992    0.2668407613
H        1.9362704046   -2.4416919113    1.7038664796
H        1.2153709961   -0.9037522644    2.3832970822
H        1.4682067711   -1.8480253482   -1.6232213198
18   
torsion grid (120,)
C       -0.1824706943    0.1134160767   -1.5053062967
C       -0.1148433904    1.1088478628    0.8322393551
C       -1.0617013544   -0.0575815260    0.8177234524
C        2.6059719949   -0.5944556124    0.7782011418
C        1.6284359686   -1.4951151904    1.5030696235
C        0.1613341354   -0.0517240535   -0.1074316645
C        1.3167418530   -1.0276784113    0.1077421991
N       -0.4441317359    0.2253949314   -2.6350259273
O        1.3820444490   -2.0592043430   -0.8453567154
H       -0.4343723518    2.0474216813    0.3920885050
H        0.5571017523    1.2125617240    1.6787030118
H       -1.0348446849   -0.7637409306    1.6400217098
H       -2.0331217238    0.0725921556    0.3530524997
H        2.7004980270    0.4371536634    1.1037981476
H        3.5221753273   -1.0424512126    0.4055717253
H        1.8847898561   -2.5452224423    1.5967832828
H        1.0762169215   -1.0829718838    2.3422435399
H        1.6309650558   -1.6748705295   -1.7031748161
18   
torsion grid (135,)
C       -0.3179437345   -0.0521990435   -1.4847307031
C       -0.0688456679    1.1995232809    0.6906374488
C       -1.0052755399    0.0449121669    0.9008658257
C        2.5504824112   -0.6201534394    0.9191771285
C        1.5805199850   -1.6604901383    1.4428839669
C        0.1410601340   -0.0784304175   -0.1101787647
C        1.3370727794   -1.0216507493    0.1041615680
N       -0.6884847783   -0.0093524304   -2.5882609130
O        1.5514949832   -1.9169719972   -0.9602845481
H       -0.4251940188    2.0746683439    0.1576471762
H        0.6640503829    1.4081125464    1.4630187680
H       -0.9176688857   -0.5392756892    1.8094360556
H       -2.0100025940    0.1121709317    0.4976366983
H        2.5703492565    0.3543705475    1.3967521900
H        3.5125953789   -0.9659332495    0.5532673044
H        1.8886904665   -2.7005527744    1.4166432154
H        0.9525304379   -1.3910622407    2.2855360182
H        1.8453584088   -1.4153136879   -1.7392656613
18   
torsion grid (150,)
C       -0.4639520422   -0.2354709785   -1.4351745379
C       -0.0071530159    1.2733467156    0.4891329826
C       -0.8986372762    0.1840791957    1.0089618236
C        2.4289649110   -0.6619181168    1.0810817946
C        1.5324868864   -1.8682770462    1.3436880093
C        0.0956740253   -0.1381694310   -0.1013763812
C        1.3261294224   -1.0336615780    0.1172642094
N       -0.9240687330   -0.2475309381   -2.5049917533
O        1.7388376533   -1.7030245328   -1.0539454821
H       -0.4402890818    2.0418496233   -0.1421010177
H        0.8225309683    1.6022610045    1.1045396615
H       -0.6800842396   -0.2333258145    1.9861075427
H       -1.9513657417    0.1985146469    0.7477312270
H        2.3137658940    0.2017010653    1.7289579461
H        3.4445886395   -0.8523989169    0.7487592261
H        1.9476907953   -2.8565567877    1.1755958379
H        0.8141590260   -1.8030849245    2.1538198687
H        2.0615113144   -1.0459612263   -1.6931081836
18   
torsion grid (165,)
C       -0.5853896857   -0.3887765899   -1.3708510375
C        0.0544544988    1.2993537629    0.3386922057
C       -0.7839206913    0.2887229555    1.0654760987
C        2.3114557614   -0.7003731348    1.2088731341
C        1.4913836560   -1.9910380155    1.2440770196
C        0.0767090839   -0.1745949736   -0.0988586561
C        1.3252793500   -1.0264897344    0.1136647619
N       -1.1298707302   -0.4934364910   -2.3947981333
O        1.8866495805   -1.4972563331   -1.0926213560
H       -0.4432399604    2.0017487888   -0.3212359390
H        0.9535772205    1.6713366822    0.8176510688
H       -0.4634903336   -0.0274056614    2.0535094576
H       -1.8587017937    0.3000544501    0.9201077462
H        2.0751341947    0.0638126125    1.9443436826
H        3.3620938528   -0.7801783170    0.9493981583
H        1.9961323403   -2.9213614654    1.0055221697
H        0.6969952346   -2.0687317329    1.9792943762
H        2.1955378269   -0.7330148429   -1.6073019836
18   
torsion grid (180,)
C       -0.6732909437   -0.5212891013   -1.2830870088
C        0.0928119363    1.3224665297    0.2306407741
C       -0.7037663719    0.3766151256    1.0837284521
C        2.2361988525   -0.7553604603    1.3009634744
C        1.4616962734   -2.0639933656    1.1463271790
C        0.0816206960   -0.1781822437   -0.0929039989
C        1.3441724951   -0.9959910498    0.1066856942
N       -1.2991821547   -0.7491870257   -2.2379341879
O        1.9969952759   -1.3118004467   -1.1033511529
H       -0.4417761516    1.9836714168   -0.4428778464
H        1.0233417617    1.7142389517    0.6288880264
H       -0.3330197030    0.1363537503    2.0752275747
H       -1.7845596782    0.3859475927    0.9944843551
H        1.9291807273   -0.0693829153    2.0857403086
H        3.3039523973   -0.7846115790    1.1095689175
H        2.0181165877   -2.9513960878    0.8633995046
H        0.6129417875   -2.2336589299    1.8013486877
H        2.2953556178   -0.4820682019   -1.5119059797
