12   
torsion grid (-165,)
C        2.9500421055   -1.9529056071    1.8129367688
C        3.4451503057   -1.0912127014   -0.8671166208
N        4.4391856374   -0.7166207916    3.3016987106
N        3.8815691510   -0.9881977753    2.0347707936
S        2.4135148289   -3.0100478645    2.9773652074
S        2.2974696442   -2.0806331506    0.1667204486
H        3.1560139984   -1.3018589789   -1.8994958928
H        4.4806197310   -1.4079521794   -0.7222429871
H        3.3439110294   -0.0141205476   -0.7029250747
H        5.0316372228   -1.5121102782    3.5480370832
H        3.6724263865   -0.7330522551    3.9795032502
H        4.0474015260   -0.2572227561    1.3563589035
12   
torsion grid (-150,)
C        2.9208251729   -1.9317889536    1.7865656876
C        3.4848058080   -1.1419882804   -0.8888284289
N        4.4172766239   -0.7326522072    3.2992076350
N        3.8025367150   -0.9279455376    2.0441748096
S        2.5299669029   -3.1245241933    2.8714529639
S        2.1978149473   -1.9308436873    0.1571956236
H        3.1988500718   -1.3710185744   -1.9181044336
H        4.4642903224   -1.5790721874   -0.6854583800
H        3.5229444116   -0.0542926822   -0.7809007151
H        5.1072468761   -1.4769418582    3.4178360605
H        3.7066157792   -0.9065725715    4.0151587708
H        3.8277602122   -0.1080145272    1.4517164146
12   
torsion grid (-135,)
C        2.9067871494   -1.8861180722    1.7768027135
C        3.5114646287   -1.1936076345   -0.8957364570
N        4.3879323512   -0.7014943398    3.3211538542
N        3.7138771093   -0.8371377995    2.0893995375
S        2.6616692602   -3.1955952538    2.7600179549
S        2.1228678918   -1.7606946783    0.1668027504
H        3.1749138397   -1.3565121270   -1.9223063768
H        4.3986667525   -1.8015469060   -0.7101216679
H        3.7468020876   -0.1338298374   -0.7727954643
H        5.1444653862   -1.3883725071    3.3316316703
H        3.7400068149   -1.0013532947    4.0548220377
H        3.6286392727    0.0306758015    1.5747772194
12   
torsion grid (-120,)
C        2.9460683708   -1.8394094321    1.7671612852
C        3.5349968820   -1.2672742231   -0.9073112609
N        4.3577335206   -0.6413637670    3.3670830495
N        3.6488941652   -0.7431601128    2.1525678702
S        2.8614195979   -3.2440093222    2.6345670017
S        2.0976917682   -1.6065740687    0.1863989917
H        3.1340303937   -1.2485380740   -1.9234576811
H        4.2645281825   -2.0753752147   -0.8262969424
H        4.0104522768   -0.3073777311   -0.6970586924
H        5.1784558446   -1.2460027008    3.2932445585
H        3.7735565445   -1.0661372672    4.0926950668
H        3.4629781517    0.1461594330    1.7040488198
12   
torsion grid (-105,)
C        2.9654447211   -1.8025479359    1.7343859800
C        3.5153276982   -1.3426697413   -0.9376289392
N        4.2848531912   -0.6356441613    3.4335714995
N        3.5626819189   -0.6888715199    2.2248829063
S        3.0253576809   -3.2893533743    2.4520170822
S        2.0701689207   -1.4563485670    0.1895476548
H        3.1078772769   -1.1796441858   -1.9380626094
H        4.0728985872   -2.2813797838   -0.9254961649
H        4.1711091955   -0.5096234976   -0.6770640850
H        5.1332907197   -1.1918125218    3.3066965446
H        3.7350611037   -1.1408581621    4.1340625081
H        3.3311440458    0.2138176278    1.8259574716
12   
torsion grid (-90,)
C        3.0672765431   -1.7126371263    1.7141278764
C        3.4973733994   -1.3841358014   -0.9858430411
N        4.2577377436   -0.5983533632    3.5390479589
N        3.5424418545   -0.6028696371    2.3258470882
S        3.2751593994   -3.2528499010    2.2749694925
S        2.1182119991   -1.2802722554    0.2195485009
H        3.0642912052   -1.1789658366   -1.9675188098
H        3.9214819186   -2.3901859461   -0.9805353658
H        4.2702709009   -0.6438474026   -0.7696040028
H        5.1030119278   -1.1552199118    3.3932700727
H        3.7039111504   -1.1284388275    4.2175507914
H        3.2962841312    0.3113532737    1.9633370485
12   
torsion grid (-75,)
C        3.1724847498   -1.6217148153    1.6750957533
C        3.4555919733   -1.4453253679   -1.0668091950
N        4.1657562958   -0.6184193677    3.6737365404
N        3.5213592501   -0.5502349345    2.4236400154
S        3.4846994203   -3.1925471060    2.0889910945
S        2.2022247045   -1.1066258543    0.2261120639
H        2.9732740898   -1.2396006142   -2.0250617469
H        3.7547393849   -2.4943305930   -1.0270573633
H        4.3239819005   -0.7946159936   -0.9484985502
H        5.0461945811   -1.1193428788    3.5325807572
H        3.6034483160   -1.2313288229    4.2702328234
H        3.2778980085    0.3823211676    2.1090935223
12   
torsion grid (-60,)
C        3.2872740420   -1.5290644849    1.6363044746
C        3.4185512850   -1.5067588167   -1.1368967464
N        4.0679763649   -0.6500520565    3.7837931838
N        3.5049841846   -0.5103999133    2.5011107459
S        3.7064870015   -3.1049262353    1.9281874953
S        2.3217805363   -0.9542368548    0.2185048710
H        2.8900739297   -1.2872593916   -2.0672734617
H        3.5928107633   -2.5809333828   -1.0569666778
H        4.3639050209   -0.9622004004   -1.1137895511
H        4.9873650289   -1.0822347494    3.6657938991
H        3.5084135479   -1.3439913264    4.2859913664
H        3.2590265773    0.4369770058    2.2369326016
12   
torsion grid (-45,)
C        3.3897907566   -1.4341823147    1.6126081347
C        3.3857200787   -1.5635753278   -1.1723862149
N        3.9916498067   -0.6665343635    3.8596332125
N        3.4843583656   -0.4708027677    2.5612995158
S        3.9348803786   -2.9877612407    1.8100440384
S        2.4450441125   -0.8247082206    0.2066125026
H        2.8414144869   -1.3019996698   -2.0826066293
H        3.4224776591   -2.6475609700   -1.0584650520
H        4.3946404322   -1.1504060067   -1.2123150094
H        4.9365578066   -1.0452040616    3.7621488778
H        3.4443930121   -1.4152418992    4.2910143127
H        3.2073598394    0.4808881427    2.3486881756
12   
torsion grid (-30,)
C        3.4804583723   -1.3462125582    1.5919133773
C        3.3630555803   -1.6108372290   -1.1869616515
N        3.9392101497   -0.6896165372    3.9071301968
N        3.4627781165   -0.4445401819    2.6059719122
S        4.1546574431   -2.8584825351    1.7105678879
S        2.5733290083   -0.7081474063    0.1844634299
H        2.8646894232   -1.2620857059   -2.0945743747
H        3.2172645305   -2.6842487675   -1.0659358470
H        4.4279263809   -1.3795163954   -1.2334551654
H        4.9127550854   -0.9908281348    3.8230281506
H        3.4347930935   -1.5017293045    4.2699649171
H        3.1231075817    0.4975894449    2.4492728846
12   
torsion grid (-15,)
C        3.5490834869   -1.2750419068    1.5701244892
C        3.3410555193   -1.6442862161   -1.1957819168
N        3.8908877502   -0.7273477839    3.9333697982
N        3.4312428277   -0.4405893842    2.6351370338
S        4.3106908791   -2.7498895036    1.6353431799
S        2.7214295504   -0.5821912628    0.1446369944
H        2.8795148835   -1.2581276294   -2.1079788844
H        3.0422018916   -2.6792043006   -1.0298350400
H        4.4271638463   -1.5774990170   -1.2663645397
H        4.8876829148   -0.9446191908    3.8640902623
H        3.4435831570   -1.5969912671    4.2314192640
H        3.0216867856    0.4804973501    2.5284987226
12   
torsion grid (0,)
C        3.6189098499   -1.2191874359    1.5546623812
C        3.3211751597   -1.6629959353   -1.1933755138
N        3.8490056863   -0.7525438741    3.9486078559
N        3.3965489045   -0.4495830377    2.6516533253
S        4.4504876143   -2.6573308234    1.5941202449
S        2.8955746600   -0.4644207485    0.1054133032
H        2.9056237477   -1.2478990288   -2.1150342681
H        2.8725982766   -2.6334197897   -0.9801376343
H        4.4030560287   -1.7655892322   -1.2792762401
H        4.8617892500   -0.8839253488    3.8973639422
H        3.4688576012   -1.6678253891    4.1992925782
H        2.8998938220    0.4309349212    2.5770400927
12   
torsion grid (15,)
C        2.5031513419   -1.0613544229    2.1473652953
C        0.2161387134   -1.0058769826    0.5360453956
N        4.4469049885   -0.8421195864    3.6223179313
N        3.6850656857   -0.4889974968    2.4936824903
S        1.7507058883   -2.2376572593    3.0471497349
S        1.9349710505   -0.4123405783    0.5811531713
H       -0.1973455778   -0.6244915482   -0.4008737164
H       -0.3470123360   -0.6131627401    1.3832232134
H        0.1897955847   -2.0954329818    0.5450507126
H        4.6502221772   -1.8417108905    3.5539531057
H        3.8435901182   -0.7432078664    4.4419733835
H        4.0687601358    0.2760631121    1.9505715956
12   
torsion grid (30,)
C        2.5331160574   -1.1520960677    2.1139435861
C        0.2227078872   -0.9694291525    0.5536225077
N        4.4131512748   -0.7880531271    3.6419293956
N        3.6446323423   -0.4785880090    2.5045319876
S        1.8558005779   -2.3981815261    2.9765552628
S        2.0019233233   -0.5809510920    0.5007002101
H       -0.1803204940   -0.6348013469   -0.4052047310
H       -0.2614637514   -0.4320968776    1.3700003147
H        0.0739692144   -2.0428712352    0.6707274846
H        4.7145030985   -1.7610761243    3.5523417208
H        3.7839362435   -0.7724745232    4.4478061538
H        3.9595816714    0.3351328087    1.9885821971
12   
torsion grid (45,)
C        2.5678404032   -1.2649215266    2.0644330174
C        0.2377988064   -0.9207493194    0.5726546420
N        4.3555502707   -0.7430033632    3.6557644886
N        3.5896094194   -0.4894949096    2.5023373926
S        2.0055250328   -2.6009088943    2.8698212609
S        2.0475332668   -0.7319506000    0.4255155788
H       -0.1710726977   -0.6811894318   -0.4115337339
H       -0.1599095442   -0.2297226841    1.3173248459
H       -0.0081488411   -1.9495077740    0.8382102629
H        4.7528868475   -1.6803796374    3.5578261432
H        3.7061490817   -0.8064782395    4.4431615805
H        3.8310714347    0.3609479973    2.0062626328
12   
torsion grid (60,)
C        2.6087210564   -1.3882395464    2.0078706884
C        0.2680437289   -0.8636025578    0.6098849255
N        4.2610891160   -0.6923952703    3.6750086610
N        3.5183392389   -0.5106504191    2.4930489618
S        2.1783820336   -2.7978792271    2.7641763809
S        2.0784202305   -0.8919981238    0.3509803341
H       -0.1775797892   -0.6556484705   -0.3654324068
H       -0.0079851603   -0.0780589372    1.3152222549
H       -0.0694435177   -1.8371526851    0.9689233560
H        4.7390728117   -1.5936363196    3.5965182540
H        3.5912016178   -0.8103832640    4.4387569103
H        3.7010123807    0.3534875128    1.9953503019
12   
torsion grid (75,)
C        2.6686177078   -1.5155830027    1.9490055889
C        0.3261189484   -0.8066833598    0.6685886066
N        4.1326019841   -0.6155424585    3.6909692240
N        3.4347979196   -0.5303700870    2.4709478748
S        2.3919545720   -2.9722828870    2.6823432830
S        2.0971905979   -1.0717408265    0.2808477006
H       -0.1688610914   -0.5935039773   -0.2815432799
H        0.1972271581    0.0402815719    1.3450194640
H       -0.0973337053   -1.7132296530    1.1048719675
H        4.7136484044   -1.4571024367    3.6483387071
H        3.4420691459   -0.8057831216    4.4210338095
H        3.5703833229    0.3289894594    1.9503797078
12   
torsion grid (90,)
C        2.7245782121   -1.6385479106    1.8979277046
C        0.3907912993   -0.7504273080    0.7371385557
N        3.9831433234   -0.5471224438    3.6906824125
N        3.3284500317   -0.5573636466    2.4437672410
S        2.6284114722   -3.1216014916    2.6199521002
S        2.0807895749   -1.2587521931    0.2357847858
H       -0.1474242679   -0.5194201739   -0.1849795787
H        0.4153276168    0.1364810925    1.3734941466
H       -0.1086797568   -1.5741480373    1.2509925227
H        4.6523624862   -1.3218522847    3.6862197581
H        3.2892115689   -0.7997215419    4.3981383239
H        3.4203574648    0.2919971315    1.8979203092
12   
torsion grid (105,)
C        2.7609871537   -1.7538511695    1.8323499439
C        0.4371863988   -0.6980934886    0.7648314666
N        3.8639704883   -0.5575965520    3.6610295676
N        3.2116397744   -0.6151117165    2.4135989821
S        2.8728648096   -3.2566986450    2.5086027420
S        2.0259148569   -1.4264447133    0.2010352423
H       -0.1450685452   -0.5036704555   -0.1388293520
H        0.5865217556    0.2391107804    1.3044737341
H       -0.0997526847   -1.4138576386    1.3906202344
H        4.5873439666   -1.2821564532    3.6569912434
H        3.1905332286   -0.8565946361    4.3697531186
H        3.2637323775    0.2353922897    1.8645865264
12   
torsion grid (120,)
C        2.7959157974   -1.7934909922    1.8580945202
C        0.4760989964   -0.6433683310    0.7986231795
N        3.7826606928   -0.5129276385    3.6950162153
N        3.0955931050   -0.6178704702    2.4683161430
S        3.1377818814   -3.2833051058    2.4874327303
S        1.9735414000   -1.5642866684    0.2631377767
H       -0.1612021850   -0.5771481354   -0.0863296560
H        0.7015270753    0.3658665042    1.1483289767
H       -0.0485122528   -1.2033085174    1.5751902944
H        4.5376795369   -1.2041747521    3.6768056973
H        3.1458637345   -0.8282253754    4.4296605744
H        3.0782628278    0.2385182568    1.9270904150
12   
torsion grid (135,)
C        2.8089827760   -1.8503246386    1.8385683738
C        0.5180709999   -0.5832187935    0.7734982983
N        3.7137311264   -0.5534139234    3.7041511244
N        2.9840365161   -0.6767005670    2.5031402641
S        3.3524339078   -3.3166432891    2.3826321042
S        1.8996694672   -1.6986179330    0.2983642860
H       -0.2111271103   -0.6658709320   -0.0358743389
H        0.8173146695    0.4636084697    0.8640870171
H        0.0606593263   -0.9270999911    1.7028552856
H        4.5412120581   -1.1498837573    3.6175816601
H        3.1524144926   -0.9759453435    4.4461890476
H        2.8592028724    0.1997397343    2.0117088428
12   
torsion grid (150,)
C        2.8076548449   -1.8923066048    1.8749874037
C        0.5645716016   -0.5485345051    0.7507645120
N        3.6716159008   -0.5632275547    3.7347021219
N        2.8870928929   -0.7278717175    2.5737526627
S        3.5391239689   -3.3066112642    2.3410422982
S        1.8187462118   -1.8414705078    0.3922588981
H       -0.2108490931   -0.6818535817   -0.0072570233
H        0.9548495940    0.4692732740    0.6618075534
H        0.1268152079   -0.7032210379    1.7388157376
H        4.5603036395   -1.0436704614    3.5698609911
H        3.2171257056   -1.0873770963    4.4849846875
H        2.6197789110    0.1466179406    2.1406857699
12   
torsion grid (165,)
C        3.1045701254   -2.0605906983    1.8099981512
C        3.4046270565   -1.0266305001   -0.8370954356
N        4.4985666752   -0.7350632091    3.3132522552
N        4.0262322861   -1.0854291602    2.0307307236
S        2.3272517239   -2.8940540796    3.0195048729
S        2.7102878206   -2.4296402038    0.1194287661
H        3.0181854897   -1.1510556133   -1.8514470156
H        4.4974518258   -1.0469652479   -0.8887210077
H        3.0549597017   -0.0693311002   -0.4437826574
H        4.6653693475   -1.6066883580    3.8235043127
H        3.7268637967   -0.2804715895    3.8053058056
H        4.6118377129   -0.7448780180    1.2801379917
12   
torsion grid (180,)
C        3.0088806245   -2.0029063192    1.8055073384
C        3.4260272981   -1.0411835236   -0.8598084460
N        4.4555993195   -0.7296501138    3.3064348417
N        3.9399861531   -1.0423426782    2.0325085710
S        2.3438351969   -2.9498253995    3.0009123024
S        2.4772300790   -2.2554462626    0.1337827088
H        3.0991434761   -1.1960407839   -1.8908342203
H        4.5033092102   -1.2241316680   -0.8139797367
H        3.1932245859   -0.0095710962   -0.5810604090
H        4.8416175464   -1.5928563622    3.6963731452
H        3.6598310060   -0.4995198265    3.9064407835
H        4.3261426995   -0.4819480442    1.2860595568
