12   
torsion grid (-165,)
C        2.3971411770   -2.4749006835    3.0906638676
C        0.4767901716   -0.6694807251    1.9062980300
C        2.5021692908   -1.1355629338    3.0149765997
C        3.6720887408   -0.3791680911    3.5913004848
N        1.6498617859   -0.2991704267    2.2393681641
H        1.6174849609   -3.0310585328    2.5776680691
H        3.1261822998   -3.0560428419    3.6468589140
H       -0.1063460906   -0.0240847377    1.2462554763
H       -0.0097028657   -1.5885318788    2.2621252607
H        4.2510336720    0.0678787573    2.7761436592
H        3.3303034553    0.4446794255    4.2282399953
H        4.3250839519   -1.0303006442    4.1770997734
12   
torsion grid (-150,)
C        2.4207610718   -2.4977346737    3.0433665756
C        0.4833333634   -0.6505676132    1.9435771243
C        2.5273222979   -1.1584595433    2.9561832818
C        3.6443852629   -0.3756733613    3.5981100572
N        1.7158471619   -0.3685692855    2.1048487440
H        1.6785277459   -3.0534195725    2.4770839918
H        3.1179181708   -3.0725793395    3.6452899002
H       -0.0982858679   -0.0744123243    1.2211881146
H       -0.0417530053   -1.4319400271    2.5108831752
H        4.2703255542    0.0724188638    2.8193089231
H        3.2485420355    0.4472797845    4.2043815401
H        4.2651667588   -1.0120862206    4.2327768663
12   
torsion grid (-135,)
C        2.4501745927   -2.5379126147    3.0169264003
C        0.5036826385   -0.6121588415    1.9740304828
C        2.5573174254   -1.2023388196    2.8917043390
C        3.6051486901   -0.3751228144    3.5911124546
N        1.7683773776   -0.4582803194    1.9849350024
H        1.7327011785   -3.1071925606    2.4324031043
H        3.1244270543   -3.0928815017    3.6620865101
H       -0.0881679848   -0.0741282467    1.2305911683
H       -0.0304743649   -1.2570069914    2.6859559328
H        4.2503201603    0.1107463732    2.8515467395
H        3.1386655473    0.4205878151    4.1835788369
H        4.2199182347   -0.9900547914    4.2521273233
12   
torsion grid (-120,)
C        2.4896829746   -2.5914907076    3.0020531981
C        0.5330888493   -0.5576546030    2.0011876652
C        2.5807590418   -1.2604004992    2.8371328247
C        3.5530071180   -0.3782967262    3.5764919107
N        1.8008149664   -0.5640613218    1.8851384930
H        1.7974076955   -3.1866395091    2.4130342216
H        3.1506205546   -3.1145588069    3.6864293522
H       -0.0654474122   -0.0411347918    1.2475558302
H        0.0037029622   -1.0538378366    2.8266933569
H        4.1933448135    0.1577351995    2.8678520454
H        3.0146325818    0.3775537726    4.1605565915
H        4.1804764043   -0.9629574828    4.2528728047
12   
torsion grid (-105,)
C        2.5437914181   -2.6541521736    2.9869901521
C        0.5654963525   -0.4896868745    2.0296144553
C        2.5892854959   -1.3256126959    2.7977911592
C        3.4873032119   -0.3864379138    3.5607870618
N        1.8042445683   -0.6784105862    1.8127704433
H        1.8855466033   -3.2854799492    2.3967985721
H        3.2028903394   -3.1363142177    3.7023180665
H       -0.0366187237    0.0116113286    1.2682980137
H        0.0584649396   -0.8206413164    2.9470450089
H        4.1201841755    0.1837370994    2.8720276115
H        2.8869986755    0.3388739996    4.1231731678
H        4.1245034933   -0.9332300134    4.2593845820
12   
torsion grid (-90,)
C        2.1888091335   -2.4669757297    3.8244049050
C        0.6451421083   -0.3046036738    2.0656080267
C        2.4385131373   -1.5109815995    2.9170903939
C        3.7027714226   -0.6914042254    2.8686703025
N        1.5209660892   -1.2061767968    1.8783387915
H        1.2614144745   -3.0323846072    3.8085904560
H        2.9268655833   -2.7214081588    4.5785602795
H       -0.0436411499   -0.0578100442    1.2542636666
H        0.5278236317    0.2380881068    3.0146977189
H        4.1734733348   -0.7665034299    1.8821171624
H        3.4748665248    0.3682034720    3.0375724685
H        4.4150862595   -1.0237866266    3.6270841227
12   
torsion grid (-75,)
C        2.2276991101   -2.5450644228    3.8328916680
C        0.6975791651   -0.2519727542    2.0400583333
C        2.4013865908   -1.5524105117    2.9484262019
C        3.6289835981   -0.6772268844    2.8834315727
N        1.4304801755   -1.2859702592    1.9443012883
H        1.3313696975   -3.1585804753    3.8219999465
H        2.9879375268   -2.7654526753    4.5754169652
H       -0.0266352304   -0.0460741622    1.2485380539
H        0.7324074787    0.4488775400    2.8868703875
H        4.0883144956   -0.7346508261    1.8899934590
H        3.3654963502    0.3732641995    3.0557942539
H        4.3670715917   -0.9804820815    3.6292761640
12   
torsion grid (-60,)
C        2.2640380329   -2.6061726273    3.8381658136
C        0.7390033807   -0.2145608109    2.0029612297
C        2.3632368738   -1.5729705343    2.9874823432
C        3.5656099397   -0.6628217694    2.9094280422
N        1.3307277249   -1.3400948958    2.0382836035
H        1.3949837501   -3.2575556913    3.8265921146
H        3.0443436297   -2.8066496524    4.5654243335
H       -0.0406756676   -0.0545014332    1.2549350843
H        0.9482997874    0.6175567249    2.6904790999
H        3.9849770258   -0.6761410412    1.8970192251
H        3.2976751447    0.3764113493    3.1339677160
H        4.3398709276   -0.9782429315    3.6122596886
12   
torsion grid (-45,)
C        2.2941734045   -2.6495455658    3.8406918957
C        0.7715078102   -0.1932913986    1.9650983767
C        2.3283246413   -1.5788779448    3.0295411116
C        3.5140766085   -0.6463183001    2.9391988393
N        1.2322266370   -1.3663417804    2.1531029848
H        1.4422398175   -3.3229907122    3.8310678361
H        3.1008021035   -2.8515493673    4.5385016142
H       -0.0721210866   -0.0676470198    1.2831365484
H        1.1560806394    0.7148881173    2.4492787633
H        3.8770673834   -0.5968082971    1.9064394198
H        3.2590636663    0.3759496494    3.2422796463
H        4.3286489247   -0.9932106937    3.5786612581
12   
torsion grid (-30,)
C        2.3154590627   -2.6790642656    3.8420551833
C        0.8041163060   -0.1867594684    1.9252806268
C        2.2971775388   -1.5775452079    3.0706599220
C        3.4690561120   -0.6275771832    2.9721220893
N        1.1446582319   -1.3667825742    2.2734950304
H        1.4687038395   -3.3588759371    3.8442032019
H        3.1562155921   -2.9006591529    4.4924038774
H       -0.0939426755   -0.0643642837    1.3164875931
H        1.3473931926    0.7288486414    2.1932471825
H        3.7703391210   -0.4994829597    1.9262417785
H        3.2301498000    0.3675311269    3.3659309584
H        4.3227644286   -1.0110120486    3.5348708504
12   
torsion grid (-15,)
C        2.3329332905   -2.7026465217    3.8314163726
C        0.8278447690   -0.1856279557    1.8966941671
C        2.2731108747   -1.5701945500    3.1072003055
C        3.4347509561   -0.6085531464    3.0049548414
N        1.0692132779   -1.3353419301    2.4003046653
H        1.4830336560   -3.3780410577    3.8545917762
H        3.2126673339   -2.9592968296    4.4140330006
H       -0.1135904308   -0.0426067860    1.3627578968
H        1.4977903294    0.6813899824    1.9559416138
H        3.7158542790   -0.4449168491    1.9580516783
H        3.1943346494    0.3712843752    3.4347603307
H        4.3041475647   -1.0011920443    3.5362916459
12   
torsion grid (0,)
C        2.3458398570   -2.7196497757    3.8101253198
C        0.8397123219   -0.1918966611    1.8746439125
C        2.2565598635   -1.5553336407    3.1412630046
C        3.4143453417   -0.5892653615    3.0404422659
N        1.0108280650   -1.2765374222    2.5299458868
H        1.4883321160   -3.3840351216    3.8574940236
H        3.2611543853   -3.0203103616    4.3112959439
H       -0.1355969152   -0.0124687531    1.4182187112
H        1.6010955868    0.5847969493    1.7312445196
H        3.7043189887   -0.4184602141    1.9968301813
H        3.1612451761    0.3863329277    3.4723951771
H        4.2842557630   -0.9789158786    3.5730993480
12   
torsion grid (15,)
C        2.3512751648   -2.7295836569    3.7818875480
C        0.8425682592   -0.2074658728    1.8563598255
C        2.2481290391   -1.5332571392    3.1746744259
C        3.4074361362   -0.5681387404    3.0793197347
N        0.9746194631   -1.1950725469    2.6569325620
H        1.4846432758   -3.3801506114    3.8506115537
H        3.2919464737   -3.0764186597    4.1991410782
H       -0.1546718367    0.0175428781    1.4733077891
H        1.6592245125    0.4422996877    1.5173345573
H        3.7080372909   -0.3905809985    2.0397397504
H        3.1437394389    0.4036911066    3.5126848684
H        4.2751433322   -0.9586087596    3.6150046011
12   
torsion grid (30,)
C        2.3490339901   -2.7289384391    3.7507440982
C        0.8381076924   -0.2370360130    1.8331872049
C        2.2469395893   -1.5030815093    3.2070854827
C        3.4129136562   -0.5443495119    3.1246184452
N        0.9620408790   -1.0961181724    2.7693089339
H        1.4726955570   -3.3649264278    3.8325312494
H        3.3026003453   -3.1181360032    4.0945174656
H       -0.1684722663    0.0469334813    1.5197063289
H        1.6731203094    0.2457714842    1.3088413758
H        3.7009208878   -0.3301180464    2.0884908384
H        3.1556375202    0.4116132886    3.5947182544
H        4.2865523894   -0.9573574442    3.6332486168
12   
torsion grid (45,)
C        2.3393127790   -2.7166636445    3.7176424034
C        0.8306748388   -0.2805778640    1.8053596183
C        2.2506490297   -1.4635609647    3.2407903011
C        3.4271432969   -0.5172951511    3.1754990539
N        0.9714875344   -0.9794882694    2.8614076286
H        1.4545908856   -3.3415853188    3.7958869677
H        3.2949615143   -3.1399051463    4.0108992263
H       -0.1687792604    0.0752693929    1.5464135748
H        1.6456272187   -0.0107810120    1.1196070120
H        3.6632367723   -0.2235960560    2.1459414462
H        3.2045820725    0.4005721688    3.7311407769
H        4.3186038679   -0.9781314480    3.6064102850
12   
torsion grid (60,)
C        2.3276220928   -2.6968766210    3.6718506111
C        0.8183755812   -0.3346747986    1.7864322622
C        2.2587758461   -1.4180523824    3.2706812769
C        3.4466937961   -0.4871130217    3.2278238788
N        0.9986998820   -0.8516879512    2.9346418799
H        1.4360774123   -3.3149181755    3.7253340179
H        3.2784163434   -3.1464468711    3.9398839390
H       -0.1535418710    0.1074093266    1.5562262676
H        1.5765319098   -0.3136068354    0.9904244074
H        3.6329666060   -0.1200061192    2.2115932169
H        3.2625607943    0.3898758512    3.8587408578
H        4.3489121568   -0.9896457148    3.5833656788
12   
torsion grid (75,)
C        2.3127679084   -2.6674836171    3.6074682378
C        0.7915740316   -0.3941755650    1.7810988947
C        2.2749598983   -1.3651021161    3.2892987061
C        3.4812777558   -0.4595236803    3.2814549960
N        1.0459639014   -0.7196527251    2.9829054291
H        1.4106816935   -3.2724210109    3.6183544211
H        3.2502150286   -3.1461017276    3.8721192378
H       -0.1446073311    0.1242720597    1.5614838003
H        1.4540318189   -0.6184389939    0.9322905883
H        3.6542679811   -0.0522219837    2.2778624493
H        3.3243363004    0.3927698374    3.9522124763
H        4.3766215631   -0.9976637905    3.6004490575
12   
torsion grid (90,)
C        2.2987366054   -2.6265231655    3.5323896499
C        0.7493900035   -0.4609978978    1.7825054867
C        2.3009941496   -1.3072035730    3.2898789538
C        3.5291084893   -0.4342548355    3.3359219090
N        1.1080567444   -0.5977209747    2.9939655337
H        1.3815637798   -3.2071405263    3.4913246935
H        3.2138635062   -3.1402599881    3.8095542182
H       -0.1583482937    0.1046243158    1.5595888134
H        1.2961702182   -0.8995877426    0.9353290147
H        3.7296982991   -0.0086431481    2.3450352536
H        3.3793034970    0.4058281061    4.0231705775
H        4.4035535509   -1.0038638833    3.6583341902
12   
torsion grid (105,)
C        2.2862073442   -2.5765456256    3.4605305238
C        0.6988869980   -0.5291440341    1.7835044967
C        2.3325088893   -1.2488513027    3.2663810508
C        3.5826236350   -0.4161451751    3.3864073967
N        1.1760096806   -0.4901379685    2.9616065668
H        1.3531396503   -3.1262119005    3.3744486971
H        3.1738003184   -3.1258236502    3.7589865351
H       -0.1929608658    0.0582181954    1.5531488526
H        1.1325025803   -1.1392842167    0.9784727534
H        3.8247084830    0.0437989717    2.4206882830
H        3.4339225505    0.3984560746    4.1035591216
H        4.4307412859   -1.0240726813    3.7092640166
12   
torsion grid (120,)
C        2.2735799442   -2.5262485314    3.3967764627
C        0.6510220087   -0.5928937105    1.7857316770
C        2.3695261269   -1.1965310221    3.2237549851
C        3.6336621593   -0.4029459284    3.4292341467
N        1.2513000130   -0.3974873220    2.8912263851
H        1.3262978074   -3.0439117195    3.2740056548
H        3.1294247361   -3.1086784680    3.7240618409
H       -0.2285239616    0.0089647316    1.5466367207
H        0.9725847344   -1.3468312061    1.0535561550
H        3.9222725209    0.1026508251    2.5000598061
H        3.4747302333    0.3750102689    4.1835947855
H        4.4562142272   -1.0468412306    3.7483596746
12   
torsion grid (135,)
C        2.2719371515   -2.4842368686    3.3425139274
C        0.6048402742   -0.6425726050    1.7891585714
C        2.4095458193   -1.1577745422    3.1622692936
C        3.6744187621   -0.3960220614    3.4644283319
N        1.3298288384   -0.3258053782    2.7878057782
H        1.3185529186   -2.9825725432    3.1900048507
H        3.0988451862   -3.0852572257    3.7083114619
H       -0.2599122875   -0.0219882117    1.5451311652
H        0.8104418735   -1.5107967906    1.1473566866
H        4.0148309335    0.1557812826    2.5804491959
H        3.4853181009    0.3420169308    4.2510739223
H        4.4734429791   -1.0665152998    3.7884951090
12   
torsion grid (150,)
C        2.2826086030   -2.4560276761    3.2955980440
C        0.5634498490   -0.6742808396    1.7971188856
C        2.4520962757   -1.1357490096    3.0937917420
C        3.7020384644   -0.3934648409    3.4929383233
N        1.4123110153   -0.2763916619    2.6606752635
H        1.3321319358   -2.9486051085    3.1102944978
H        3.0834431694   -3.0624114104    3.7076007050
H       -0.2729288133   -0.0207769972    1.5412010181
H        0.6356135856   -1.6365664084    1.2709068815
H        4.0964883679    0.1902377439    2.6531722787
H        3.4654252152    0.3158114381    4.2929766234
H        4.4794128820   -1.0775185426    3.8407240311
12   
torsion grid (165,)
C        2.3116802083   -2.4492389613    3.2461275095
C        0.5262975774   -0.6837295639    1.8159697580
C        2.4899007325   -1.1319424698    3.0374555374
C        3.7114042746   -0.3915637022    3.5198957773
N        1.4963567398   -0.2523327389    2.5209845725
H        1.3843389100   -2.9603593420    3.0029554622
H        3.0914353511   -3.0461559415    3.7090035154
H       -0.2499194979    0.0206408643    1.5100433368
H        0.4263383721   -1.7198722877    1.4633184981
H        4.1621849200    0.1909727633    2.7082837191
H        3.4187596825    0.3209289999    4.2984812645
H        4.4633132793   -1.0730909332    3.9244793434
12   
torsion grid (180,)
C        2.3605080213   -2.4651405808    3.1726291955
C        0.4939749944   -0.6741976555    1.8568370722
C        2.5013268067   -1.1364267004    3.0297396800
C        3.6960451274   -0.3852631208    3.5575678471
N        1.5779790962   -0.2559311989    2.3794287643
H        1.5036363082   -3.0167200194    2.7957568691
H        3.1207459334   -3.0470252086    3.6842978033
H       -0.1628252396    0.0546516632    1.3770835298
H        0.1560571864   -1.7195737126    1.8456111249
H        4.2057610967    0.1325973061    2.7373798767
H        3.3718803705    0.3861312003    4.2650332686
H        4.4070008483   -1.0488452855    4.0556332627
