10   
torsion grid (-165,)
C        1.2040897505   -0.0793261073    0.4719477775
C       -1.1048143405    0.0070750078   -0.5138571213
N        0.0636851707   -0.6813730344    0.0248739980
O        1.1075066592    1.2568230867    0.6968422109
S        2.6221342971   -0.8871034725    0.7476553814
H       -0.8393803848    0.6955648431   -1.3254145932
H       -1.7924655443   -0.7416081892   -0.9095298449
H       -1.6492531243    0.5577325960    0.2646247328
H        0.1811487438   -1.6644167161   -0.1814796224
H        0.1778770151    1.5461583874    0.7197309216
10   
torsion grid (-150,)
C        1.2531462940   -0.0396555008    0.2821941369
C       -1.1642308863   -0.0263313190   -0.3840078657
N        0.0762654426   -0.6785758530    0.0266052217
O        1.1446045639    1.3073414711    0.4609639196
S        2.7154415916   -0.8042816673    0.3946034573
H       -0.9949849755    0.6834635064   -1.2011502665
H       -1.8587296032   -0.7941180139   -0.7280059289
H       -1.6494320577    0.4965433957    0.4506345202
H        0.1768126018   -1.6722179416   -0.1328944685
H        0.2716352713    1.5373583239    0.8264511143
10   
torsion grid (-135,)
C        1.2478501118   -0.0356386745    0.2507052379
C       -1.1760730862   -0.0358938659   -0.3878628614
N        0.0719386609   -0.6781561559    0.0154681766
O        1.1322390502    1.3255192755    0.3494312549
S        2.7051647380   -0.7972543233    0.4241893137
H       -0.9937144595    0.7294180600   -1.1480318144
H       -1.8359772979   -0.7963989802   -0.8085526259
H       -1.6986412980    0.4223961383    0.4620104642
H        0.1535826905   -1.6832824231   -0.0626148050
H        0.3641591327    1.5588173508    0.9006514998
10   
torsion grid (-120,)
C        1.2363151956   -0.0340897504    0.2338548562
C       -1.1908026443   -0.0489488226   -0.3920560169
N        0.0699745682   -0.6817149313   -0.0171444561
O        1.1123019268    1.3366682494    0.2541204816
S        2.6858634703   -0.7888119926    0.4854916603
H       -1.0121338308    0.7702627440   -1.0925360982
H       -1.8230472951   -0.7951199694   -0.8769315133
H       -1.7337945095    0.3397787327    0.4793582812
H        0.1390242073   -1.6909828296   -0.0294713726
H        0.4868271540    1.6024849714    0.9507080182
10   
torsion grid (-105,)
C        1.2163034446   -0.0310058426    0.2360277309
C       -1.2068919334   -0.0642773677   -0.3998971151
N        0.0651359401   -0.6868697689   -0.0461471324
O        1.0776471937    1.3438190156    0.1956591633
S        2.6638684191   -0.7710447705    0.5404188369
H       -1.0406616004    0.7762259386   -1.0762988827
H       -1.8281428958   -0.8079521927   -0.9028270845
H       -1.7489614985    0.2939560293    0.4845268363
H        0.1365852250   -1.6962873180   -0.0407516707
H        0.6356459481    1.6529626785    1.0046831585
10   
torsion grid (-90,)
C        1.1892006893   -0.0238486355    0.2542931574
C       -1.2240031545   -0.0810778892   -0.4101540699
N        0.0586789293   -0.6907451557   -0.0706555877
O        1.0316811658    1.3490304103    0.1730136391
S        2.6402060321   -0.7477926621    0.5883755864
H       -1.0754749103    0.7637760293   -1.0844069089
H       -1.8402280546   -0.8320114364   -0.9085338489
H       -1.7575422463    0.2684403834    0.4821468614
H        0.1438445053   -1.6991464728   -0.0773410675
H        0.8041652864    1.7029018303    1.0486560790
10   
torsion grid (-75,)
C        1.1477530073   -0.0091759439    0.3082022312
C       -1.2293955998   -0.0913360341   -0.4582037251
N        0.0516054435   -0.6905060579   -0.0907369768
O        0.9143235487    1.3511322094    0.3537968629
S        2.6425082728   -0.6885296645    0.5426365030
H       -1.1543549417    0.4833231794   -1.3873450315
H       -1.9553563653   -0.8957079712   -0.5919969479
H       -1.5843421007    0.5732873107    0.3318193580
H        0.2097677296   -1.6697410676   -0.2915275977
H        0.9280192483    1.6467804413    1.2787491644
10   
torsion grid (-60,)
C        1.1168253502   -0.0024443284    0.3377459164
C       -1.2432339756   -0.1040438448   -0.4755068501
N        0.0424523208   -0.6897938722   -0.1033295045
O        0.8580694190    1.3470872875    0.3961581547
S        2.6211322187   -0.6625992330    0.5881331195
H       -1.1753425685    0.4580659610   -1.4132670872
H       -1.9659107956   -0.9136612964   -0.5951525932
H       -1.5936769391    0.5702153004    0.3076499355
H        0.2244648051   -1.6583841937   -0.3323959893
H        1.0857484077    1.6650846211    1.2853587386
10   
torsion grid (-45,)
C        1.0912165244    0.0043560837    0.3557640259
C       -1.2559043923   -0.1141431719   -0.4835814621
N        0.0348669498   -0.6896681728   -0.1137344722
O        0.8092060751    1.3409938001    0.4386931383
S        2.6033563136   -0.6365189071    0.6276977900
H       -1.1906207461    0.4620543659   -1.4130995290
H       -1.9690055866   -0.9298084491   -0.6180503995
H       -1.6154276757    0.5447324575    0.3085984451
H        0.2328111127   -1.6519717280   -0.3539359509
H        1.2300296676    1.6795001233    1.2470422549
10   
torsion grid (-30,)
C        1.0707073815    0.0099169130    0.3692258332
C       -1.2657441854   -0.1214040225   -0.4890683677
N        0.0280828794   -0.6898142660   -0.1194272002
O        0.7662337539    1.3322609716    0.4932698657
S        2.5889274601   -0.6132297933    0.6620020176
H       -1.1977517123    0.4771731597   -1.4042111123
H       -1.9677406290   -0.9417305436   -0.6501106054
H       -1.6410366149    0.5139847041    0.3152042080
H        0.2374656667   -1.6478072332   -0.3652466480
H        1.3513842426    1.6901765120    1.1837558495
10   
torsion grid (-15,)
C        1.0565193680    0.0129117116    0.3796478301
C       -1.2718694884   -0.1254521802   -0.4924643064
N        0.0237321516   -0.6899954885   -0.1233489914
O        0.7299766139    1.3194999683    0.5579634147
S        2.5770980640   -0.5981915069    0.6932979115
H       -1.1991217016    0.4982757365   -1.3902856085
H       -1.9629835785   -0.9482874905   -0.6841745021
H       -1.6643813723    0.4833930861    0.3243221694
H        0.2399896016   -1.6454509416   -0.3716166617
H        1.4415685842    1.7028235067    1.1020525848
10   
torsion grid (0,)
C        1.0541506134    0.0120452895    0.3782628554
C       -1.2764386110   -0.1261566432   -0.4796434752
N        0.0264967198   -0.6893020108   -0.1350043975
O        0.7269805350    1.3185302402    0.5463562024
S        2.5529390609   -0.6096949001    0.7705691003
H       -1.1802337061    0.6457103313   -1.2490228586
H       -1.9059933871   -0.9315001604   -0.8616337588
H       -1.7571442419    0.3139236187    0.3987378458
H        0.2096923566   -1.6702963662   -0.2911774113
H        1.5200789029    1.7462670026    0.9179497380
10   
torsion grid (15,)
C        1.0582267151    0.0139554104    0.3749920262
C       -1.2820440700   -0.1317166421   -0.4649724864
N        0.0315323279   -0.6848526429   -0.1457221023
O        0.7428863873    1.3270876486    0.5233978276
S        2.5213891627   -0.6313063020    0.8515643814
H       -1.1727972951    0.7855370028   -1.0466131525
H       -1.8286065243   -0.8653822632   -1.0604176817
H       -1.8559449245    0.0942406782    0.4406608789
H        0.1735772046   -1.6847166086   -0.1838623653
H        1.5823092588    1.7866801205    0.7063665145
10   
torsion grid (30,)
C        1.0632584489    0.0060721501    0.3901944885
C       -1.2757251359   -0.1277874561   -0.4623894205
N        0.0378799436   -0.6833927685   -0.1472875175
O        0.7312811033    1.3118136716    0.5938956013
S        2.5120984176   -0.6586489295    0.8781215447
H       -1.1649215885    0.8082931937   -1.0123956409
H       -1.8116518665   -0.8450947256   -1.0869274498
H       -1.8608108066    0.0664789174    0.4434845222
H        0.1753041299   -1.6841451777   -0.1887734323
H        1.5638155968    1.8159375262    0.5874711446
10   
torsion grid (45,)
C        1.0718811395   -0.0065694915    0.4102153316
C       -1.2655224305   -0.1203126657   -0.4578967445
N        0.0468271036   -0.6819715779   -0.1476976244
O        0.7305630452    1.2945533619    0.6623432241
S        2.5054860998   -0.6944523149    0.9030384778
H       -1.1531086039    0.8297680877   -0.9825629231
H       -1.7954383806   -0.8226803457   -1.1043366729
H       -1.8575179455    0.0500070580    0.4482261488
H        0.1793827896   -1.6831974902   -0.2021963884
H        1.5079754255    1.8443817799    0.4662610114
10   
torsion grid (60,)
C        1.0818786818   -0.0226383706    0.4361099052
C       -1.2519099109   -0.1096613257   -0.4523688079
N        0.0591787491   -0.6793044336   -0.1507062089
O        0.7422250382    1.2785168563    0.7244505896
S        2.4986556804   -0.7351466510    0.9326849688
H       -1.1398759709    0.8496428505   -0.9599039724
H       -1.7814312560   -0.7998783913   -1.1121864505
H       -1.8447297523    0.0448902273    0.4558799550
H        0.1868654773   -1.6802931967   -0.2253483222
H        1.4196715059    1.8633988364    0.3467821837
10   
torsion grid (75,)
C        1.0887885085   -0.0447272192    0.4743946718
C       -1.2309918319   -0.0924360352   -0.4530874674
N        0.0748329282   -0.6768126029   -0.1558133705
O        0.7565352543    1.2563807601    0.7968878217
S        2.4925099554   -0.7784533862    0.9661581882
H       -1.1173375462    0.8530783277   -0.9869398758
H       -1.7791284190   -0.7902616913   -1.0890932274
H       -1.8078768315    0.0914774158    0.4593246945
H        0.2041487859   -1.6734185086   -0.2752560923
H        1.2890474387    1.8646993413    0.2588184976
10   
torsion grid (90,)
C        1.0905937443   -0.0830733599    0.5323321155
C       -1.1992427385   -0.0663287321   -0.4800201553
N        0.0923527162   -0.6705023279   -0.1654348916
O        0.7402244222    1.1737487410    0.9948474494
S        2.5260256740   -0.8162714082    0.9105213142
H       -1.1232840222    0.6491426886   -1.3078997439
H       -1.8881697919   -0.8610499932   -0.7729617492
H       -1.5995796489    0.4490164958    0.3943867215
H        0.2857441276   -1.6137929739   -0.4768517713
H        1.0458637597    1.8486372713    0.3664745512
10   
torsion grid (105,)
C        1.1018138447   -0.0997572539    0.5588976158
C       -1.1817962023   -0.0493169796   -0.4706630495
N        0.1117675304   -0.6588464902   -0.1774418605
O        0.7907561102    1.1714044381    1.0043041211
S        2.5185264150   -0.8582539424    0.9505185843
H       -1.1182923601    0.6730699874   -1.2943760865
H       -1.8781110833   -0.8382556163   -0.7616387245
H       -1.5693625934    0.4582043240    0.4146664555
H        0.3016572009   -1.5970567307   -0.5057132969
H        0.8935693805    1.8083346652    0.2768400817
10   
torsion grid (120,)
C        1.1166215822   -0.1059659843    0.5714108917
C       -1.1664019536   -0.0344013556   -0.4608526429
N        0.1324547506   -0.6441628902   -0.1931342835
O        0.8543272131    1.1816777039    0.9812198094
S        2.5048339883   -0.8974800708    0.9962506963
H       -1.1153984910    0.7116463094   -1.2646708243
H       -1.8600329046   -0.8176206923   -0.7723852014
H       -1.5561333664    0.4429277475    0.4413496235
H        0.3096684185   -1.5884172361   -0.5101841643
H        0.7505890053    1.7613228702    0.2063899360
10   
torsion grid (135,)
C        1.1360882532   -0.1027401032    0.5659007251
C       -1.1539843108   -0.0227346695   -0.4501325523
N        0.1532699808   -0.6292730247   -0.2136915985
O        0.9291517698    1.2035552412    0.9217500506
S        2.4839779335   -0.9300715125    1.0482273441
H       -1.1089350494    0.7770531296   -1.2009335431
H       -1.8285904752   -0.7921897122   -0.8291654515
H       -1.5700561829    0.3825818241    0.4769160373
H        0.3000102232   -1.5952956127   -0.4750510051
H        0.6295961004    1.7186408416    0.1515738337
10   
torsion grid (150,)
C        1.1598266902   -0.0956636117    0.5453736795
C       -1.1435848036   -0.0140386215   -0.4422213362
N        0.1634792811   -0.6261442627   -0.2191357472
O        1.0087257997    1.2258066692    0.8437475170
S        2.4750279628   -0.9486727568    1.0728364343
H       -1.0868030244    0.8348747043   -1.1361723866
H       -1.7980081552   -0.7578411066   -0.8990008378
H       -1.5972109200    0.3211001927    0.4969696332
H        0.2742961660   -1.6136618910   -0.4072926769
H        0.5147792459    1.6837670857    0.1402895612
10   
torsion grid (165,)
C        1.1833160872   -0.0920558856    0.5209718497
C       -1.1323918835   -0.0045149077   -0.4492225368
N        0.1587525221   -0.6352777702   -0.1975546959
O        1.0725250476    1.2368162811    0.7807819062
S        2.4943712794   -0.9543836130    1.0478613579
H       -1.0452519196    0.8453234540   -1.1393070964
H       -1.7845354462   -0.7355958975   -0.9289598535
H       -1.6136930653    0.3298204232    0.4779037070
H        0.2471581394   -1.6324293994   -0.3403996832
H        0.3902774813    1.6518237167    0.2233188855
10   
torsion grid (180,)
C        1.2034874164   -0.0874052035    0.4913472595
C       -1.1231868417    0.0024409171   -0.4666779876
N        0.1361644388   -0.6536505664   -0.1406930313
O        1.1197814572    1.2491102410    0.7100468905
S        2.5402792610   -0.9407542489    0.9697750107
H       -0.9766838899    0.8362705698   -1.1653427992
H       -1.7694667455   -0.7210383592   -0.9654698231
H       -1.6491207295    0.3625981238    0.4276141504
H        0.2070466470   -1.6569090125   -0.2435404417
H        0.2822272287    1.6188639404    0.3783346124
