21   
torsion grid (-165,)
C       -1.5130261689    1.1569257753   -0.1504321501
C       -0.7727203722   -1.3157274251   -1.0704856989
C        1.7855042021    2.0079707063    0.4713019873
C        0.4935838238   -0.7639052521    1.2726512112
C        1.1738291989    1.2492141052   -0.7043361535
C        2.2144219366    0.5109075583   -1.5200403605
F        2.7849491002   -0.5183366915   -0.8306261764
F        1.6994570659   -0.0070985986   -2.6546673770
F        3.2322314042    1.3372852022   -1.8852305551
S       -0.2979819376    0.0228433345   -0.2249762651
H       -1.1919359101    2.1410707360    0.1767680500
H       -2.4403971754    0.7612561833    0.2506922572
H       -0.1159639393   -2.1750863855   -0.9728397377
H       -1.2014361969   -1.0939777904   -2.0412496846
H        1.0038232863    2.4292755488    1.1076819815
H        2.3975576130    2.8367515145    0.1015400758
H        2.4240890318    1.3666162458    1.0828921648
H        1.4010155240   -1.2996794327    0.9902422258
H        0.7123565661    0.0258400549    1.9900735811
H       -0.2589389534   -1.4430298011    1.6740753328
H        0.6563630173    1.9187916537   -1.3948610689
21   
torsion grid (-150,)
C       -1.5428819708    1.1046770056   -0.2773088874
C       -0.6647542872   -1.3838578925   -1.0257885177
C        1.9083375928    1.8808214274    0.5268083292
C        0.4190825229   -0.6556285451    1.3632499900
C        1.1771092164    1.2784245702   -0.6710703502
C        2.1185485191    0.5911641145   -1.6335030321
F        2.6724342446   -0.5263659190   -1.0817465133
F        1.5033646185    0.2157226200   -2.7736371258
F        3.1540588278    1.4000849789   -1.9878258492
S       -0.2871448955    0.0157943621   -0.2292361862
H       -1.2753828288    2.1140309486    0.0210432483
H       -2.4813776136    0.6926559126    0.0786911466
H        0.0127277450   -2.2114518417   -0.8368655127
H       -1.0256332152   -1.2284803018   -2.0362211186
H        1.1944263674    2.3172540273    1.2298143217
H        2.5708250668    2.6835045118    0.1867645319
H        2.5177297695    1.1453896625    1.0560664143
H        1.3800515416   -1.1434679115    1.1842359599
H        0.5231491405    0.1733533968    2.0609278421
H       -0.3208602060   -1.3684670672    1.7277652571
H        0.6329709604    2.0527491820   -1.2139903080
21   
torsion grid (-135,)
C       -1.5591424650    1.0353387900   -0.4161611686
C       -0.5370788166   -1.4492584901   -0.9630366516
C        2.0562118492    1.7321228879    0.5616494657
C        0.3020581491   -0.5585795936    1.4661847352
C        1.1885342325    1.3030308109   -0.6190433462
C        2.0148675371    0.7145187170   -1.7412093781
F        2.6368209626   -0.4326390645   -1.3517914570
F        1.2765060751    0.4272237546   -2.8324423895
F        2.9953151292    1.5710652010   -2.1409041610
S       -0.2707103863    0.0051485520   -0.2185047746
H       -1.3663591695    2.0668601691   -0.1394489709
H       -2.5098684012    0.5909219732   -0.1414729174
H        0.1544371138   -2.2367947940   -0.6782457466
H       -0.8151823897   -1.3589780275   -2.0070030952
H        1.4426446526    2.1874867621    1.3423082097
H        2.7774698770    2.4862036530    0.2294374452
H        2.6173937211    0.9010908126    0.9937101426
H        1.2608183092   -1.0793523859    1.4039815854
H        0.3710081139    0.3157462281    2.1107771121
H       -0.4817925716   -1.2295283084    1.8181221881
H        0.6328295938    2.1562795941   -1.0087331872
21   
torsion grid (-120,)
C       -1.5568590830    0.9566764177   -0.5655314335
C       -0.3931917919   -1.5048322798   -0.8757730457
C        2.2011557921    1.5472969738    0.5696746701
C        0.1764491925   -0.4505982445    1.5641611084
C        1.1980596851    1.3179832655   -0.5569847321
C        1.8952940062    0.8656523557   -1.8264665019
F        2.5876410536   -0.2878703546   -1.6336995044
F        1.0428612667    0.6629778903   -2.8499334256
F        2.7992895017    1.7973936302   -2.2431204839
S       -0.2529583724   -0.0004454466   -0.1979296131
H       -1.4456114733    2.0093826716   -0.3313699646
H       -2.5104705727    0.4727007080   -0.3859215575
H        0.3013654905   -2.2428698445   -0.4857878839
H       -0.5799080923   -1.4850884009   -1.9435813270
H        1.7133528226    1.9875698605    1.4411987236
H        2.9730648858    2.2487008432    0.2364184114
H        2.7013148151    0.6249699105    0.8734663587
H        1.1194790323   -0.9988510243    1.6229817691
H        0.2181952296    0.4675442612    2.1483188685
H       -0.6542783888   -1.0734784769    1.8965048971
H        0.6525361169    2.2330925254   -0.7884516939
21   
torsion grid (-105,)
C       -1.5371213534    0.8777537784   -0.6966085304
C       -0.2635297143   -1.5507546760   -0.7685677230
C        2.3097300099    1.3384025670    0.5448063468
C        0.0679880483   -0.3258841897    1.6381415257
C        1.2040502146    1.3152850598   -0.5066068145
C        1.7869508109    1.0233274976   -1.8818374239
F        2.5119803675   -0.1247506011   -1.8859197575
F        0.8577443783    0.9184254658   -2.8488551682
F        2.6370584528    2.0233995106   -2.2559415353
S       -0.2367163894   -0.0040922108   -0.1798358334
H       -1.4798832555    1.9488761287   -0.5451116760
H       -2.4852837193    0.3646686878   -0.5866353739
H        0.4172600860   -2.2360843151   -0.2727920435
H       -0.3658438107   -1.6071415824   -1.8465651506
H        1.9367058432    1.7062929629    1.5014708614
H        3.1116710235    2.0102758152    0.2232466764
H        2.7490078964    0.3486061733    0.6927244051
H        1.0108913132   -0.8467957249    1.8157877681
H        0.0434467944    0.6341735668    2.1537983393
H       -0.7781561628   -0.9408089821    1.9459849721
H        0.6888302830    2.2747323099   -0.5725102249
21   
torsion grid (-90,)
C       -1.5102232177    0.7555039047   -0.8203978383
C       -0.1311947831   -1.6097179591   -0.6285020461
C        2.3803594203    1.1363544431    0.4910817838
C       -0.0133171056   -0.1957612524    1.6894035695
C        1.2058491602    1.3164481629   -0.4651137267
C        1.6842617904    1.2173989074   -1.9088272300
F        2.2857995451    0.0278404197   -2.1602245160
F        0.7068380964    1.3803683303   -2.8167489989
F        2.6150361686    2.1865619243   -2.1600195364
S       -0.2147631520   -0.0246955012   -0.1663337120
H       -1.4858785032    1.8376739392   -0.8114542143
H       -2.4461391900    0.2155338812   -0.7502244412
H        0.5230080473   -2.2320758542   -0.0261391073
H       -0.1639873854   -1.7620939537   -1.7012980258
H        2.1145347709    1.4258978602    1.5079683316
H        3.2206066855    1.7618891129    0.1776278258
H        2.7264067471    0.0980112624    0.4973040749
H        0.9047458535   -0.7179047466    1.9640187016
H       -0.0435029848    0.8067155623    2.1187091402
H       -0.8902925072   -0.7647949791    1.9998454765
H        0.7186336602    2.2887537773   -0.3625018711
21   
torsion grid (-75,)
C       -1.4581212244    0.6107471132   -0.9648824852
C        0.0132570962   -1.6578647942   -0.4829096101
C        2.4329923464    0.9537801633    0.4206848374
C       -0.0978539611   -0.0654057499    1.7141481350
C        1.2173484039    1.3151870740   -0.4246220182
C        1.5828295466    1.4084359506   -1.9015121209
F        1.9158522941    0.2034425952   -2.4237129700
F        0.6007104773    1.9331781359   -2.6588282982
F        2.6695702595    2.2203275245   -2.0743029232
S       -0.1853038351   -0.0518256998   -0.1593562490
H       -1.4699011558    1.6896500219   -1.0521186873
H       -2.3772138076    0.0409895767   -0.9083383642
H        0.6194075817   -2.2114409887    0.2260063866
H        0.0550852320   -1.9052011560   -1.5368157163
H        2.2584533302    1.1615894297    1.4767403196
H        3.3046035025    1.5330388288    0.1083928590
H        2.6794559137   -0.1080492095    0.3060262388
H        0.7817126696   -0.5949664975    2.0833398220
H       -0.1080079142    0.9715740605    2.0551369577
H       -1.0123035212   -0.5729673369    2.0236488291
H        0.7642078821    2.2736881998   -0.1585513026
21   
torsion grid (-60,)
C       -1.4052750115    0.4904448336   -1.0695255188
C        0.1113818988   -1.6859129773   -0.3537320409
C        2.4857590744    0.7982863581    0.3222665704
C       -0.1882288896    0.0531561473    1.7231412588
C        1.2390844595    1.2986357038   -0.3991168442
C        1.5121782298    1.5549944766   -1.8746392589
F        1.7074199919    0.4091933749   -2.5672415253
F        0.5260578019    2.2503902701   -2.4786803287
F        2.6468454219    2.3013688739   -2.0321573928
S       -0.1622201261   -0.0735109555   -0.1481004297
H       -1.4512576673    1.5627372818   -1.2097192455
H       -2.3103191796   -0.1015183437   -1.0058578341
H        0.6818945781   -2.1801137131    0.4243928188
H        0.1985067109   -2.0055156002   -1.3849184247
H        2.3660777581    0.8637744266    1.4047113984
H        3.3575867009    1.3959206894    0.0488459430
H        2.6909786749   -0.2447486134    0.0557996071
H        0.6503958736   -0.4725114831    2.1830434329
H       -0.1827739174    1.1123732918    1.9872671017
H       -1.1343377708   -0.4045765883    2.0146422740
H        0.8470265042    2.2250397884    0.0277520784
21   
torsion grid (-45,)
C       -1.3471425558    0.3786343566   -1.1589020930
C        0.1557154345   -1.7081804766   -0.1996486191
C        2.5455590855    0.6353282286    0.1833806858
C       -0.2900778472    0.1782763274    1.7237677291
C        1.2754879450    1.2667803154   -0.3764964267
C        1.4653058719    1.6947508854   -1.8225046718
F        1.6019350937    0.6430295858   -2.6590888382
F        0.4567459357    2.4717302555   -2.2773392407
F        2.6009009631    2.4458559838   -1.9530719111
S       -0.1503091965   -0.0904998497   -0.1276867327
H       -1.4129462446    1.4383458253   -1.3660532424
H       -2.2433664645   -0.2267232314   -1.0911734965
H        0.6903488135   -2.1339941684    0.6419747805
H        0.2964847450   -2.1032646723   -1.1983201259
H        2.4521715127    0.4546934492    1.2560625811
H        3.4029439996    1.2944121528    0.0314001824
H        2.7489741027   -0.3217328439   -0.3067563059
H        0.5672103834   -0.2226634098    2.2682600203
H       -0.3976823907    1.2508769046    1.8933470699
H       -1.2032156601   -0.3441222403    2.0113697219
H        0.9717375893    2.1463738635    0.1956525729
21   
torsion grid (-30,)
C       -1.2701828749    0.2557189984   -1.2570783098
C        0.1578002088   -1.7294844006   -0.0260366260
C        2.5901683494    0.4664610962    0.0187543113
C       -0.3758812322    0.3141873829    1.7064548665
C        1.3180874727    1.2192062464   -0.3516316015
C        1.4265325901    1.8437447372   -1.7298368509
F        1.5197829468    0.9300180672   -2.7170915814
F        0.3881142874    2.6687191919   -2.0112933461
F        2.5490499213    2.6213507741   -1.8095766076
S       -0.1466103251   -0.1112075592   -0.1078387547
H       -1.3373538345    1.2929217714   -1.5541441416
H       -2.1606200619   -0.3592909127   -1.2021569868
H        0.6293814105   -2.0822710828    0.8847043636
H        0.3744293442   -2.2051278139   -0.9748858663
H        2.5165945034    0.0523935154    1.0274483184
H        3.4547892978    1.1339234061   -0.0084899547
H        2.7632906738   -0.3665485227   -0.6678847523
H        0.5443391452    0.1703840860    2.2782276448
H       -0.7016284325    1.3547417298    1.7456774694
H       -1.1635507830   -0.3470864375    2.0690851259
H        1.1102485091    2.0251529679    0.3557669199
21   
torsion grid (-15,)
C       -1.1581826188    0.1164634013   -1.3443439392
C        0.1653859746   -1.7415700604    0.1562447081
C        2.6347645321    0.3406551590   -0.1719959871
C       -0.4759696711    0.4272982186    1.6770324788
C        1.3679713102    1.1690950097   -0.3305225309
C        1.3770409954    1.9795491819   -1.6102896893
F        1.4429941937    1.2264878189   -2.7253113321
F        0.2926963938    2.7921194386   -1.7122056746
F        2.4646494524    2.8085888422   -1.6324542375
S       -0.1294120682   -0.1358302993   -0.0789285615
H       -1.2244919421    1.1266705754   -1.7223783475
H       -2.0424892306   -0.5088216077   -1.3052645712
H        0.5698468661   -2.0176092152    1.1239449179
H        0.4479420773   -2.2937817703   -0.7317654077
H        2.6271626617   -0.1901452732    0.7836320628
H        3.5206605686    0.9804559835   -0.1993911904
H        2.7131744207   -0.4090108396   -0.9640798279
H        0.4092037053    0.3108903197    2.3087359676
H       -0.7796912060    1.4738243507    1.6197899724
H       -1.2963357763   -0.1924294568    2.0405711486
H        1.2598604777    1.8850074645    0.4871536806
21   
torsion grid (0,)
C       -1.0063302237   -0.0345556507   -1.4233896343
C        0.1709742410   -1.7316565219    0.3565662997
C        2.6692386623    0.2273653184   -0.4044111042
C       -0.5859178269    0.5481808582    1.6271243609
C        1.4278440235    1.0978911846   -0.3057764009
C        1.3249550689    2.0904757937   -1.4461188329
F        1.3545379503    1.5293013484   -2.6699402416
F        0.1961695388    2.8464997393   -1.3589454065
F        2.3699029898    2.9704899492   -1.3936940805
S       -0.1033498875   -0.1540624894   -0.0433489976
H       -1.0686056466    0.9452159050   -1.8761022698
H       -1.8874034150   -0.6661333737   -1.4000014096
H        0.4980990564   -1.9169706490    1.3736943706
H        0.5236378249   -2.3585618852   -0.4532948487
H        2.7388860537   -0.4343337169    0.4623936278
H        3.5717184916    0.8436591780   -0.4422577233
H        2.6308300070   -0.3985070538   -1.3003498731
H        0.2273207364    0.4169851881    2.3461174545
H       -0.8099003770    1.6063214997    1.4796171397
H       -1.4770791533    0.0055470151    1.9441467736
H        1.4212530018    1.7147556045    0.5961444361
21   
torsion grid (15,)
C       -0.8551950870   -0.1800628900   -1.4729063831
C        0.1774789157   -1.7091005746    0.5356356495
C        2.6695698463    0.1501617411   -0.6270825339
C       -0.6698644770    0.6625778472    1.5523162446
C        1.4753879816    1.0247812656   -0.2881469506
C        1.2831773136    2.1657638105   -1.2681583316
F        1.2621135337    1.7877421312   -2.5614246068
F        0.1333620029    2.8541385518   -1.0202353844
F        2.2993501693    3.0688063530   -1.1418047485
S       -0.0722433542   -0.1731207094   -0.0132227755
H       -0.8959199456    0.7666225247   -1.9951134531
H       -1.7391612385   -0.8087871308   -1.4620279449
H        0.4360289581   -1.8070041785    1.5838753090
H        0.5758631006   -2.4014805429   -0.1957736515
H        2.7862730516   -0.6304591266    0.1289962977
H        3.5877936330    0.7436429816   -0.6560341580
H        2.5282661463   -0.3320707394   -1.5977475355
H        0.0668723695    0.5362573484    2.3498662637
H       -0.8208332254    1.7187815745    1.3222691843
H       -1.6140219363    0.1849495577    1.8159614732
H        1.5724833584    1.5257674464    0.6789316752
21   
torsion grid (30,)
C       -0.7326608964   -0.3040555625   -1.4870332781
C        0.1879856467   -1.6851347143    0.6825337482
C        2.6360207324    0.1149694100   -0.8153339342
C       -0.7436325563    0.7433160911    1.4744853244
C        1.5043114624    0.9762861821   -0.2779433679
C        1.2716844737    2.2235970029   -1.1108644795
F        1.1841089617    1.9858981937   -2.4366548026
F        0.1381852340    2.8847652228   -0.7439144191
F        2.2984400952    3.1045235292   -0.9381800559
S       -0.0442885971   -0.1948774733    0.0154175977
H       -0.7277269118    0.6061489203   -2.0732674041
H       -1.6190491231   -0.9292885438   -1.4955703400
H        0.3846912479   -1.7107393604    1.7481556653
H        0.6221619863   -2.4250032398    0.0216128128
H        2.7778427719   -0.7509290393   -0.1627902893
H        3.5720691025    0.6803711682   -0.8421894569
H        2.4056360656   -0.2430241339   -1.8209050239
H       -0.0611975163    0.6697351634    2.3252576375
H       -0.8784781744    1.7807795828    1.1688323971
H       -1.7018073196    0.2766986238    1.7053383862
H        1.7124844310    1.3438702187    0.7311869222
21   
torsion grid (45,)
C       -0.6296352464   -0.4208277641   -1.4854316811
C        0.2016741994   -1.6566003721    0.8126315802
C        2.5823789832    0.1054587785   -0.9783402895
C       -0.8346484997    0.7934349399    1.3843166853
C        1.5279377339    0.9455070778   -0.2683357035
C        1.3010854981    2.2772282869   -0.9598480075
F        1.0442528960    2.1579158582   -2.2818894922
F        0.2732854279    2.9867275923   -0.4189293136
F        2.4072654031    3.0649577266   -0.8445593795
S       -0.0232738861   -0.2174342009    0.0410173288
H       -0.5800586165    0.4527568089   -2.1242639696
H       -1.5110632990   -1.0519936684   -1.5129992041
H        0.3305709855   -1.6115230904    1.8881698199
H        0.6886063885   -2.4262928225    0.2269638188
H        2.7127298512   -0.8397175268   -0.4435087576
H        3.5444269609    0.6262016614   -0.9859960866
H        2.2839603339   -0.1166689311   -2.0038388050
H       -0.1645107660    0.8866225660    2.2433195045
H       -1.0723927077    1.7702834097    0.9688173466
H       -1.7407682661    0.2511130208    1.6564480725
H        1.8449577425    1.1707578911    0.7544301729
21   
torsion grid (60,)
C       -0.5172402610   -0.5625969542   -1.4877946459
C        0.1947886372   -1.6225617876    0.9400485707
C        2.5318425376    0.1195708766   -1.1297688002
C       -0.9243980117    0.8460078367    1.2478075250
C        1.5624194796    0.9063985389   -0.2536168876
C        1.3410744533    2.3143040785   -0.7712089137
F        0.7554610210    2.3443679473   -1.9923776035
F        0.5663937399    3.0621678323    0.0598074249
F        2.5229453726    2.9805835080   -0.8859713039
S       -0.0031572089   -0.2459249845    0.0533470440
H       -0.4486308612    0.2742588659   -2.1734665365
H       -1.3851473079   -1.2117175370   -1.5218882754
H        0.2569315109   -1.4902903625    2.0149188768
H        0.7526668831   -2.4111077645    0.4500365673
H        2.6282980832   -0.8986177213   -0.7424958951
H        3.5209716364    0.5861369050   -1.1109434278
H        2.1808324334    0.0569178183   -2.1602360596
H       -0.2763847773    1.1512218300    2.0735419744
H       -1.2740884625    1.7138823411    0.6926894923
H       -1.7631670667    0.2472646573    1.6048018439
H        1.9643692854    0.9876413171    0.7609426699
21   
torsion grid (75,)
C       -0.4151046152   -0.7096941261   -1.4643741466
C        0.1684363639   -1.5846180912    1.0733142626
C        2.4951056404    0.1619583235   -1.2729334698
C       -0.9837308024    0.8989073453    1.0950641137
C        1.6086623737    0.8624159721   -0.2473513304
C        1.3680530315    2.3197047837   -0.5898119376
F        0.4896334798    2.4729025620   -1.6148809932
F        0.8778352243    3.0256086323    0.4635653389
F        2.5159147318    2.9454444440   -0.9618512070
S        0.0258272460   -0.2782988203    0.0738778385
H       -0.3408874255    0.0913603025   -2.1923804197
H       -1.2836077287   -1.3589948425   -1.4839310135
H        0.1901070466   -1.3621972143    2.1352043516
H        0.7643534570   -2.3979806479    0.6765743095
H        2.5760158745   -0.8994807472   -1.0262865435
H        3.4978648824    0.5988735622   -1.2565387921
H        2.0900717219    0.2375319367   -2.2825739461
H       -0.4235230717    1.2494737888    1.9651870887
H       -1.2602513907    1.7321416567    0.4513833171
H       -1.8660639491    0.3318959074    1.3944227882
H        2.0920690260    0.8109525139    0.7324940305
21   
torsion grid (90,)
C       -0.3415972098   -0.8755375257   -1.4032414721
C        0.1405582083   -1.5224552938    1.2219491938
C        2.4308837085    0.2354817072   -1.4450358136
C       -1.0438795353    0.9307515107    0.9592927330
C        1.6501458795    0.8214043677   -0.2710891978
C        1.4359973789    2.3126159186   -0.4213590286
F        0.5007517178    2.6031304206   -1.3654017597
F        1.0351208662    2.9026024965    0.7356064724
F        2.5764592388    2.9514168899   -0.7938432573
S        0.0432166703   -0.3074739297    0.1069305720
H       -0.2468050395   -0.1393347865   -2.1946435908
H       -1.2125425006   -1.5219408062   -1.3934122853
H        0.1244474395   -1.2064687106    2.2601115094
H        0.7607331586   -2.3597679090    0.9234511119
H        2.4794546520   -0.8512631360   -1.3579565432
H        3.4495323303    0.6353633983   -1.4421471360
H        1.9680322958    0.4712141250   -2.4045716167
H       -0.5793103664    1.3138829440    1.8701089205
H       -1.2409066585    1.7350337833    0.2527969388
H       -1.9588924073    0.3814086908    1.1838928326
H        2.2153812893    0.6378430864    0.6467350565
21   
torsion grid (105,)
C       -0.9812021654    1.0994732854    0.8923656433
C       -1.3560039854   -0.6343420622   -1.1992489869
C        1.2075435538    2.5349602074   -0.5146369203
C        0.5326037883   -1.5320389868    0.5518608638
C        1.3250774954    1.0415042112   -0.8018076065
C        2.6946644723    0.5108913832   -0.4396871663
F        2.9142044636    0.5117055254    0.9025679807
F        2.8967949637   -0.7592417858   -0.8807281076
F        3.6826160382    1.2626444054   -0.9944047601
S       -0.2704999519   -0.0017213677   -0.1260247283
H       -0.2872274705    1.6647152598    1.5042848042
H       -1.8828193144    0.7102316927    1.3529986964
H       -1.0381521558   -1.5372383601   -1.7101967452
H       -1.9468093550    0.1035783994   -1.7297388531
H        0.1883748780    2.8743882737   -0.7022137148
H        1.8905679385    3.0869946561   -1.1681527435
H        1.4604028448    2.7710720097    0.5214364645
H        0.9840797867   -2.1315782329   -0.2396011996
H        1.2773776138   -1.2219958927    1.2829238229
H       -0.2841529438   -2.0678529063    1.0365882896
H        1.1793406215    0.8617575265   -1.8704113933
21   
torsion grid (120,)
C       -1.1337587916    1.1334299508    0.7282127334
C       -1.2485876908   -0.7759350282   -1.2343859899
C        1.3004248559    2.5444050773   -0.2901231769
C        0.5491098255   -1.4322773894    0.7005453209
C        1.2818101771    1.1053773664   -0.7904926054
C        2.6408273726    0.4521981643   -0.6561330559
F        3.0544969272    0.3491768078    0.6345739326
F        2.6702173132   -0.7979696964   -1.1911205676
F        3.5955929875    1.1654096830   -1.3115207414
S       -0.2814400629    0.0015284793   -0.1420020871
H       -0.5296856470    1.7595275087    1.3745741251
H       -2.0489436512    0.7161052425    1.1356871058
H       -0.8316867739   -1.6817390968   -1.6616092995
H       -1.8405986369   -0.1153130478   -1.8577512865
H        0.3166123045    2.9954953241   -0.4180688066
H        2.0271965886    3.1239457375   -0.8691922417
H        1.5813795861    2.6035392900    0.7643918728
H        1.0351439055   -2.0888063067   -0.0210226424
H        1.2683850634   -1.0329002201    1.4142840665
H       -0.2640342495   -1.9434690179    1.2166207153
H        1.0443197132    1.0661784130   -1.8572937317
21   
torsion grid (135,)
C       -1.2579061716    1.1622563560    0.5596305385
C       -1.1394694176   -0.8956138845   -1.2450472191
C        1.3936518218    2.4955694225   -0.0825752646
C        0.5754898339   -1.3038188049    0.8311510584
C        1.2337429089    1.1478364258   -0.7753632570
C        2.5544513098    0.4070721692   -0.8604205933
F        3.1294809915    0.1952813917    0.3521102952
F        2.4296816306   -0.8050798306   -1.4638845601
F        3.4561313612    1.1092868602   -1.5974227141
S       -0.2872807135    0.0138033763   -0.1574383221
H       -0.7397181347    1.8412935932    1.2265988228
H       -2.1799952384    0.7182796873    0.9223121988
H       -0.6281660639   -1.7854959113   -1.5963499282
H       -1.7247438423   -0.3113175003   -1.9466448514
H        0.4693461006    3.0664868605   -0.1634313273
H        2.1920440654    3.0678336626   -0.5672695191
H        1.6535271475    2.3805914396    0.9730326602
H        1.1388017209   -1.9764019412    0.1844329548
H        1.2310685220   -0.8106015603    1.5487371314
H       -0.2310910462   -1.8298907279    1.3424364089
H        0.9177343306    1.2605361576   -1.8164208727
21   
torsion grid (150,)
C       -1.3501588835    1.1769360661    0.3927932634
C       -1.0559207643   -1.0007047667   -1.2375084070
C        1.4766014922    2.4022124933    0.0966535800
C        0.5968543200   -1.1673910981    0.9307373536
C        1.1997569848    1.1736070438   -0.7646497195
C        2.4733936977    0.3907026560   -1.0313589633
F        3.1603366065    0.0888082864    0.1020066235
F        2.2426232527   -0.7797069801   -1.6794928510
F        3.3204783192    1.1086016561   -1.8156391768
S       -0.2937365885    0.0228222946   -0.1842845800
H       -0.9005441212    1.9179919602    1.0428554495
H       -2.2712219261    0.7167126959    0.7379110622
H       -0.4770691642   -1.8728309437   -1.5219193234
H       -1.6384456580   -0.4895854571   -1.9964793765
H        0.6188280477    3.0734734742    0.0776721376
H        2.3394349767    2.9490011918   -0.2989784960
H        1.6978383147    2.1313747949    1.1325251208
H        1.2100601785   -1.8597839710    0.3526982646
H        1.2105073414   -0.5880761795    1.6214002744
H       -0.1943622229   -1.6947001078    1.4642637199
H        0.8215269130    1.4484421320   -1.7530323162
21   
torsion grid (165,)
C       -1.4181510498    1.1785793687    0.2260881694
C       -0.9867123561   -1.1062570117   -1.2067040851
C        1.5552386055    2.2895312420    0.2461216915
C        0.5949507535   -1.0433090568    1.0218398466
C        1.1822316455    1.1963827139   -0.7550892187
C        2.4074600385    0.4116047642   -1.1885239004
F        3.1480143679   -0.0295624749   -0.1356341522
F        2.1028400673   -0.6750696076   -1.9374344887
F        3.2317345702    1.1891657497   -1.9400295548
S       -0.2988799477    0.0221858588   -0.2115102296
H       -1.0185227250    1.9994688857    0.8091131665
H       -2.3337772830    0.7198506751    0.5868921923
H       -0.3688309264   -1.9750995931   -1.4065109911
H       -1.5562679126   -0.6742484377   -2.0225356602
H        0.7455233608    3.0128009471    0.3373681460
H        2.4426282496    2.8292672506   -0.1018805729
H        1.7803675756    1.8822388241    1.2349937017
H        1.2504460034   -1.7545544023    0.5163996325
H        1.1687977477   -0.3930136695    1.6823953276
H       -0.1909719232   -1.5595913432    1.5735770220
H        0.7486622548    1.6275365585   -1.6607624023
21   
torsion grid (180,)
C       -1.4802005675    1.1748866875    0.0157629501
C       -0.8835524424   -1.2260171297   -1.1358099511
C        1.6772451972    2.1571997690    0.3748852608
C        0.5403975883   -0.9102257554    1.1600903719
C        1.1782983614    1.2259578353   -0.7285557863
C        2.3211527734    0.4583671929   -1.3643945001
F        2.9928027543   -0.3221705363   -0.4719194619
F        1.9111758913   -0.3490034766   -2.3663571634
F        3.2398969432    1.3110892313   -1.8945695267
S       -0.3025629004    0.0206822775   -0.2175241518
H       -1.1313594289    2.1065578439    0.4457185775
H       -2.3994459869    0.7520969870    0.4081437814
H       -0.2418775740   -2.1001886360   -1.1826599303
H       -1.3892811769   -0.9036835846   -2.0393597211
H        0.8520589307    2.7095343407    0.8251314118
H        2.3769209249    2.8878081380   -0.0442990255
H        2.2001933815    1.6100629416    1.1625130695
H        1.2847769707   -1.5987414526    0.7584140362
H        1.0044948539   -0.1860563523    1.8290563089
H       -0.2581227016   -1.4481112971    1.6716676836
H        0.6937693241    1.7778622176   -1.5377605934
