18   
torsion grid (-165,)
C       -0.4679244196    0.1121294601    2.2328068999
C       -0.8615110247    1.0912793622    3.0924283704
C       -0.2363832326    0.8181162920    1.0078047052
C        0.9037334764   -1.0213497262   -0.3067760732
C       -0.8798667798    0.3679699142   -1.4534474622
C        0.3304024757    1.2425688566   -1.4855725406
C        0.1733344296    0.2845012634   -0.3186583347
N       -0.4753349167    2.1097939315    1.1429834630
O        0.6564664021   -1.9570873323    0.4323075547
O       -0.8816187321    2.2887197481    2.4697176745
O        1.8352237686   -1.1174951769   -1.2932488884
H       -0.3539881633   -0.9454082191    2.4117103694
H       -1.1508840047    1.0968023265    4.1352594369
H       -1.8320038470    0.7997261245   -1.1635751347
H       -0.9344318296   -0.4743806038   -2.1362996031
H        1.1103345838    1.0111440092   -2.2009620155
H        0.2071397357    2.2915410088   -1.2417099279
H        2.1787961157   -2.0307015128   -1.2474739378
18   
torsion grid (-150,)
C       -0.4959388706    0.1062094488    2.1773583676
C       -0.8110926446    1.0835956456    3.0705188886
C       -0.2099426868    0.8331633349    0.9765288821
C        0.8903214429   -1.0123638738   -0.3377896943
C       -0.9260489958    0.3796860776   -1.4586925820
C        0.2989807532    1.2406549391   -1.5358264842
C        0.1527816895    0.2965188673   -0.3621476684
N       -0.3443114912    2.1338689228    1.1533171085
O        0.4947857035   -2.0196924730    0.2190017774
O       -0.7362219328    2.2988704466    2.4874696438
O        2.0335089355   -0.9955888451   -1.0701829189
H       -0.4698083645   -0.9634454730    2.3195865173
H       -1.1007245404    1.0774001552    4.1132976354
H       -1.8657068736    0.8316091890   -1.1582817327
H       -1.0134432101   -0.4673567235   -2.1327329169
H        1.0561716081    0.9879030065   -2.2692676543
H        0.1996585775    2.2961326636   -1.3093898940
H        2.3941542486   -1.9029760467   -1.0294233406
18   
torsion grid (-135,)
C       -0.7096473412   -0.6155781279    2.4931634794
C       -0.8377962867    0.1480582855    3.6126297885
C       -0.2065326848    0.3053850621    1.5183220958
C        0.5866728970   -1.3560494225   -0.1742162876
C       -0.8949390009    0.6004977257   -0.9493112132
C        0.4930774401    1.1731173534   -0.8272539971
C        0.0824777400    0.0407750673    0.0835746767
N       -0.0484524762    1.5121833226    2.0260110289
O       -0.1009600585   -2.3584816879   -0.1409873614
O       -0.4584990855    1.4188728118    3.3627621205
O        1.9125488254   -1.3930841013   -0.4590210659
H       -0.9408179349   -1.6617174093    2.3555042882
H       -1.1727545336   -0.0550930416    4.6215033788
H       -1.7277589263    1.1739378956   -0.5554844728
H       -1.1289647226   -0.0303835721   -1.8014893141
H        1.2137097435    0.9370876694   -1.6031464827
H        0.6105944904    2.1469139190   -0.3653956894
H        2.1357560958   -2.3338486474   -0.6025873301
18   
torsion grid (-120,)
C       -0.7184302436   -0.5978461139    2.5340897433
C       -0.8126647613    0.1867927873    3.6425078112
C       -0.2359220335    0.3009859802    1.5289671886
C        0.5474320202   -1.3894324399   -0.1296820406
C       -0.9708869058    0.5444611029   -0.9349088722
C        0.4266071255    1.1087109305   -0.8461875714
C        0.0075657471    0.0005653200    0.0931275319
N       -0.0572266841    1.5152315051    2.0104336340
O       -0.1233195631   -2.3790801966   -0.3494574697
O       -0.4336313074    1.4501571229    3.3589772334
O        1.8990409633   -1.4342560727   -0.0180641785
H       -0.9610162850   -1.6454739020    2.4262907573
H       -1.1219183840    0.0043156677    4.6634396674
H       -1.7904176197    1.1422756250   -0.5496078222
H       -1.2211777833   -0.1073471163   -1.7661281476
H        1.1338841920    0.8477168036   -1.6270749290
H        0.5629752143    2.0907739056   -0.4075814902
H        2.1547018623   -2.3704739971   -0.1326453642
18   
torsion grid (-105,)
C       -0.7167248695   -0.5423428436    2.4456445671
C       -0.8214653593    0.2682764838    3.5339404864
C       -0.2870072245    0.3448023031    1.4068718823
C        0.5173277160   -1.3576474319   -0.2461098378
C       -1.0386991874    0.5416024664   -1.0595616126
C        0.3560024816    1.1123139341   -0.9832259531
C       -0.0645249322    0.0127946794   -0.0252600678
N       -0.1481352278    1.5780510843    1.8511440120
O       -0.0662552729   -2.3127375513   -0.7202613555
O       -0.4965133136    1.5363975987    3.2077699096
O        1.7996825073   -1.4318133960    0.1946696641
H       -0.9182317307   -1.6020673052    2.3761276735
H       -1.1040977911    0.1026243049    4.5653967194
H       -1.8577690038    1.1455102895   -0.6830992244
H       -1.2863272716   -0.1263099011   -1.8784016391
H        1.0619386608    0.8411538949   -1.7621081418
H        0.4937889929    2.0976680898   -0.5527697460
H        2.0863904291   -2.3554166088    0.0566282641
18   
torsion grid (-90,)
C       -0.6241998746   -0.5567788349    2.4989725064
C       -0.7781063144    0.2664625172    3.5715140104
C       -0.3047054081    0.3398872417    1.4292870140
C        0.4903952684   -1.3469843100   -0.2758707959
C       -1.0605280172    0.5685514509   -1.0340010568
C        0.3383308997    1.1174543880   -0.9555512444
C       -0.0985634149    0.0063788291   -0.0047449098
N       -0.2723624674    1.5910547887    1.8438419645
O        0.0140133851   -2.2011893606   -0.9983146793
O       -0.5804870217    1.5509522474    3.2095466062
O        1.6469331664   -1.5382654090    0.4122984701
H       -0.7178650347   -1.6327956098    2.4636698987
H       -1.0167372271    0.0996651301    4.6138099201
H       -1.8679289999    1.1790159330   -0.6437336311
H       -1.3163626134   -0.0875226986   -1.8594739652
H        1.0387586457    0.8435081302   -1.7383799309
H        0.4941737947    2.0907998934   -0.5044690485
H        1.9496704163   -2.4409150087    0.1943892690
18   
torsion grid (-75,)
C       -0.5848663548   -0.5499369652    2.5266292548
C       -0.7486069180    0.2819848141    3.5906366968
C       -0.2832273010    0.3400239863    1.4459926041
C        0.5300125912   -1.3237339514   -0.3014292879
C       -1.0647917144    0.5631873085   -1.0093526915
C        0.3227755345    1.1284389744   -0.9463039415
C       -0.0859728973    0.0034901195    0.0115857000
N       -0.2714314542    1.5961609837    1.8474634734
O        0.1996402151   -2.0568405016   -1.2146189758
O       -0.5723733751    1.5657972822    3.2144954768
O        1.5305851956   -1.6446932386    0.5619398421
H       -0.6523601827   -1.6277968272    2.5051923230
H       -0.9794143532    0.1220992169    4.6357734837
H       -1.8739197040    1.1593234816   -0.6011787873
H       -1.3189636728   -0.0951609483   -1.8331289095
H        1.0179462224    0.8623830346   -1.7361159044
H        0.4735481234    2.0990181584   -0.4878621870
H        1.8692692152   -2.5136220101    0.2719668916
18   
torsion grid (-60,)
C       -0.6229759988   -0.5704770474    2.4925090618
C       -0.7742331129    0.2624187619    3.5573340985
C       -0.2677565460    0.3115651693    1.4214177785
C        0.6015207840   -1.3137721957   -0.3557012211
C       -1.0776626007    0.5024860733   -1.0254543157
C        0.2811779829    1.1241236560   -0.9788526474
C       -0.0616690686   -0.0205298215   -0.0130512722
N       -0.2167650987    1.5646597946    1.8300565172
O        0.4564153762   -1.9184162788   -1.4025729313
O       -0.5434376213    1.5408598008    3.1909843185
O        1.4201393657   -1.7656326684    0.6316991253
H       -0.7265255119   -1.6450286946    2.4645624090
H       -1.0294252774    0.1070003253    4.5974605403
H       -1.9069455902    1.0592137527   -0.6021624854
H       -1.3107579282   -0.1650020053   -1.8479248419
H        0.9771539780    0.8814000602   -1.7747980389
H        0.3984759433    2.0983625872   -0.5189930473
H        1.8126906515   -2.5941626652    0.2949332883
18   
torsion grid (-45,)
C       -0.6412999927   -0.5793728021    2.4597117907
C       -0.7920132449    0.2528934134    3.5249162157
C       -0.2464725835    0.2975922980    1.3980055869
C        0.6803167736   -1.2912919805   -0.3972050289
C       -1.0843807541    0.4407337916   -1.0416739094
C        0.2368797595    1.1304808946   -1.0108749279
C       -0.0227733582   -0.0268262418   -0.0357730092
N       -0.1748527079    1.5479991952    1.8127731873
O        0.7263859043   -1.7601202400   -1.5206201537
O       -0.5255860609    1.5272317255    3.1674200097
O        1.2972897438   -1.8875103718    0.6577239335
H       -0.7667278666   -1.6510636644    2.4252328262
H       -1.0690318897    0.0998551153    4.5598108095
H       -1.9385919432    0.9471782322   -0.6048789479
H       -1.2883474321   -0.2408637972   -1.8602985767
H        0.9358850931    0.9178661963   -1.8121904520
H        0.3068116763    2.1112056864   -0.5555706651
H        1.7365632761   -2.6804343465    0.2938228364
18   
torsion grid (-30,)
C        0.8883683504    0.1892925516    2.4744417189
C        0.2690672386    0.7731420553    3.5353133679
C       -0.0743374123    0.2981335404    1.4188065006
C        0.7365089691   -1.3649105531   -0.3746449926
C       -1.0311188667    0.3509787907   -0.9917761656
C        0.2799546046    1.0555064747   -1.0264844650
C        0.0632771376   -0.0850512664   -0.0114823094
N       -1.1714887576    0.9031684527    1.8333534764
O        0.9480152371   -1.7315973872   -1.5170403016
O       -0.9579694626    1.2112441905    3.1814500375
O        1.0982219820   -2.1171622162    0.6991002573
H        1.8647061096   -0.2692035229    2.4383337617
H        0.5539534837    0.9447910026    4.5651500594
H       -1.8805759807    0.8504821249   -0.5414399455
H       -1.2465811047   -0.3524369597   -1.7880927432
H        0.9605816929    0.8361840372   -1.8420299877
H        0.3445425088    2.0479178859   -0.5927858886
H        1.5038259581   -2.9253923084    0.3296838372
18   
torsion grid (-15,)
C        0.8663817887    0.1646322639    2.4973501178
C        0.2523357506    0.7526836463    3.5590975604
C       -0.0784100553    0.3200182249    1.4318241595
C        0.7798201871   -1.3115089101   -0.3604044687
C       -1.0611541291    0.3169583900   -0.9721148774
C        0.2104133106    1.0895835503   -1.0216767683
C        0.0747775184   -0.0475345707   -0.0000056040
N       -1.1616120354    0.9523970625    1.8411586127
O        1.2044731140   -1.5774525690   -1.4706667986
O       -0.9551086353    1.2350204665    3.1961795158
O        0.8999180716   -2.1764335193    0.6822819260
H        1.8286459371   -0.3238989143    2.4676332402
H        0.5290789692    0.9001672506    4.5948721018
H       -1.9320971925    0.7693345830   -0.5126147633
H       -1.2496646150   -0.4011395038   -1.7625893756
H        0.8945743925    0.9039772948   -1.8424736869
H        0.2189633326    2.0878920541   -0.5970297946
H        1.3489725769   -2.9654199500    0.3218343611
18   
torsion grid (0,)
C        0.8115520816    0.1452236525    2.5425361154
C        0.2066072935    0.7614367560    3.5938638417
C       -0.0938844141    0.3659434619    1.4549959299
C        0.8268216434   -1.2486860817   -0.3099568569
C       -1.0916666247    0.2747582537   -0.9415791245
C        0.1373889140    1.1147046985   -1.0151205908
C        0.0751992303   -0.0026769646    0.0260340106
N       -1.1477830897    1.0584305757    1.8427507006
O        1.4678429080   -1.4289520872   -1.3291520751
O       -0.9593438363    1.3184490692    3.2051312045
O        0.7178322363   -2.2038495186    0.6525987835
H        1.7444050051   -0.3985329568    2.5336352647
H        0.4650034513    0.8841966083    4.6375522018
H       -1.9829626109    0.6870115479   -0.4826947557
H       -1.2519369390   -0.4651108055   -1.7188136036
H        0.8263770870    0.9541970799   -1.8371851745
H        0.0900620666    2.1207488576   -0.6120042079
H        1.2237598559   -2.9725063420    0.3252973021
18   
torsion grid (15,)
C        0.8462404256    0.1563921492    2.5130140384
C        0.2490169416    0.7623440515    3.5748970404
C       -0.0704067739    0.3831841295    1.4365413774
C        0.8754978081   -1.2251479512   -0.2964568795
C       -1.0903454015    0.2434301479   -0.9474527111
C        0.1216418967    1.1127896273   -1.0461888653
C        0.0912605577    0.0138050216    0.0074914718
N       -1.1233574762    1.0681858570    1.8383774266
O        1.7233652578   -1.3357635941   -1.1617979618
O       -0.9223759715    1.3178882472    3.2013868154
O        0.5408981580   -2.2547608272    0.5268212452
H        1.7844967776   -0.3786479060    2.4900308985
H        0.5170379439    0.8787297314    4.6168882127
H       -1.9876778762    0.6445310006   -0.4900580978
H       -1.2463251152   -0.5087500075   -1.7143405903
H        0.8077857739    0.9589660673   -1.8722191083
H        0.0511039186    2.1261742258   -0.6652345404
H        1.0980385586   -3.0103054595    0.2574565773
18   
torsion grid (30,)
C        0.8342830527    0.1856784565    2.5546264864
C        0.2320455934    0.7657767394    3.6284196851
C       -0.1062095969    0.3847391114    1.4934742412
C        0.8807686777   -1.2125102734   -0.1932671699
C       -1.1243257858    0.2230886077   -0.8884519974
C        0.0851303149    1.1055493718   -0.9913301857
C        0.0500464267    0.0126867432    0.0642858287
N       -1.1768485078    1.0299049130    1.9130033992
O        1.9190615522   -1.2533793226   -0.8243586093
O       -0.9629017540    1.2818031981    3.2743669886
O        0.3484638760   -2.3113776717    0.4039160437
H        1.7953459847   -0.3069026471    2.5119860853
H        0.5121303756    0.8889389410    4.6664768165
H       -2.0283912891    0.6246133102   -0.4446129304
H       -1.2751203196   -0.5326584720   -1.6531952061
H        0.7755137958    0.9545104269   -1.8147758849
H        0.0051064754    2.1229893569   -0.6230681497
H        0.9590170800   -3.0501092062    0.2154099817
18   
torsion grid (45,)
C        0.8671877944    0.2788657696    2.5105307474
C        0.2445059017    0.8248299792    3.5907798922
C       -0.1220045842    0.3596197677    1.4780797406
C        0.8772321758   -1.2764141420   -0.1276473489
C       -1.1133840997    0.1836243493   -0.9142073010
C        0.1262336626    1.0364468980   -1.0060948331
C        0.0284045076   -0.0451032660    0.0559696660
N       -1.2379682852    0.9064734978    1.9178327392
O        2.0488063427   -1.2884468962   -0.4511761725
O       -1.0059797900    1.2131018829    3.2654753827
O        0.1874092628   -2.4106147079    0.1561119657
H        1.8723942078   -0.1120225239    2.4393010500
H        0.5437057765    1.0030149530    4.6154629480
H       -2.0163920159    0.6204512573   -0.5029440497
H       -1.2696014035   -0.5758173398   -1.6739912090
H        0.8248622378    0.8605206378   -1.8180002357
H        0.0691012143    2.0616217658   -0.6549562256
H        0.8187165748   -3.1498175489    0.0574013814
18   
torsion grid (60,)
C        0.9397130340    0.2891809998    2.5579260227
C        0.3476053601    0.8146432914    3.6652195097
C       -0.0982646679    0.3356459816    1.5720760597
C        0.8855447613   -1.2662950355   -0.0650612533
C       -1.1716614811    0.1738914839   -0.7840669294
C        0.0629452006    1.0359809363   -0.9033787318
C       -0.0055629437   -0.0678793971    0.1429666482
N       -1.2115722803    0.8444483299    2.0620403873
O        2.0990144489   -1.2297634931   -0.1310019832
O       -0.9293031075    1.1598733443    3.3979360323
O        0.1849920660   -2.4243722042   -0.1551685539
H        1.9520536187   -0.0682749253    2.4363806956
H        0.6865776702    1.0044065885    4.6753463821
H       -2.0625625530    0.6045811534   -0.3412517039
H       -1.3488508715   -0.5726209824   -1.5514602152
H        0.7314372977    0.8785584844   -1.7442750868
H        0.0182116496    2.0542361877   -0.5310848577
H        0.8448242363   -3.1377202404   -0.2605526291
18   
torsion grid (75,)
C        0.8803496223    0.2576829699    2.6160026872
C        0.2910605473    0.8185880800    3.7071646355
C       -0.1536830635    0.2929191499    1.6253402649
C        0.8282456011   -1.3295599226   -0.0079593756
C       -1.2383792389    0.1164217011   -0.7211549823
C        0.0086996786    0.9561307887   -0.8538640806
C       -0.0769512355   -0.1452342625    0.2042092052
N       -1.2615643552    0.8292055180    2.0994109878
O        2.0284785187   -1.3257077506    0.1903422170
O       -0.9808857939    1.1738453531    3.4278496792
O        0.1760380595   -2.4190913966   -0.4859674680
H        1.8858800773   -0.1195842652    2.5043968585
H        0.6292918135    1.0290828944    4.7134231008
H       -2.1169675742    0.5682821632   -0.2751462623
H       -1.4321114392   -0.6311198139   -1.4825341903
H        0.6664644382    0.7833334104   -1.7004524138
H       -0.0088025719    1.9748209444   -0.4806091889
H        0.8549363736   -3.1119572955   -0.6061903654
18   
torsion grid (90,)
C        0.8795713825    0.2630865465    2.6454199129
C        0.3126828128    0.9031179374    3.7044066644
C       -0.1341807242    0.3292355553    1.6353327499
C        0.8255179730   -1.3362544324    0.0082087186
C       -1.2556841010    0.1013418651   -0.6839377797
C       -0.0042261785    0.9165435337   -0.8649816599
C       -0.0823531770   -0.1623451123    0.2300764456
N       -1.2100873297    0.9575599006    2.0708515636
O        1.9703720828   -1.4170459069    0.4137616397
O       -0.9276695216    1.3327399284    3.3894965712
O        0.2735637526   -2.2944744709   -0.7807962491
H        1.8569033228   -0.1870952173    2.5658074664
H        0.6489527049    1.1272058169    4.7083929380
H       -2.1140921576    0.5782649167   -0.2251925157
H       -1.4773435968   -0.6592741476   -1.4233522281
H        0.6314806704    0.7096724401   -1.7207500852
H        0.0099616022    1.9411234476   -0.5087084406
H        0.9697431951   -2.9668249367   -0.9150190694
18   
torsion grid (105,)
C        0.1117614543    0.2617765366    2.1867342765
C       -0.6811691457    0.9675125650    3.0386833918
C       -0.4192427832    0.5818615066    0.8950183246
C        0.8370641594   -1.1185474458   -0.4955313354
C       -0.7038419603    0.6387730816   -1.6730598359
C        0.6202292939    1.2671620923   -1.3614347584
C        0.0520436368    0.1531068689   -0.4514174667
N       -1.4436627691    1.4102216270    0.9877991237
O        1.5916527167   -1.5132050686    0.3749375271
O       -1.6115306818    1.6645069405    2.3526693271
O        0.7067606637   -1.7778245462   -1.6789273475
H        0.9421955101   -0.3882680514    2.4116865881
H       -0.7102222923    1.0743554230    4.1152418854
H       -1.5999548985    1.2112649236   -1.4636545127
H       -0.7587055877   -0.0429490490   -2.5130361210
H        1.4753869165    1.0098730314   -1.9786612522
H        0.6382773960    2.2561968607   -0.9163760650
H        1.3228773617   -2.5340880764   -1.6316581328
18   
torsion grid (120,)
C        0.0575450001    0.2244909643    2.2102763282
C       -0.7036845142    0.9767629319    3.0513238108
C       -0.4236438601    0.5873021363    0.9102067266
C        0.8126984117   -1.1318523103   -0.4865922993
C       -0.7428523487    0.6060973466   -1.6546558780
C        0.5733941262    1.2529979393   -1.3766098781
C        0.0419655203    0.1435224112   -0.4331981970
N       -1.3916831628    1.4829342588    0.9897746481
O        1.3932519669   -1.6563186798    0.4468751154
O       -1.5708746687    1.7387457511    2.3520057283
O        0.8789774023   -1.6508283446   -1.7450123735
H        0.8325842086   -0.4857902095    2.4484582923
H       -0.7484920495    1.0774746263    4.1279111181
H       -1.6425856792    1.1672202026   -1.4304295711
H       -0.8044797287   -0.0913154969   -2.4811258885
H        1.4215095272    0.9957994947   -2.0024845721
H        0.5830529756    2.2465559769   -0.9417025022
H        1.4606116326   -2.4319354536   -1.6783647634
18   
torsion grid (135,)
C       -0.0027753757    0.1940758691    2.2232493298
C       -0.7352864322    0.9808422320    3.0583664504
C       -0.4275530245    0.6056307288    0.9181049346
C        0.7941850041   -1.1248658376   -0.4820507788
C       -0.7765094375    0.5847476444   -1.6456137688
C        0.5223026909    1.2669957825   -1.3929855526
C        0.0420259417    0.1587014997   -0.4226130705
N       -1.3393401123    1.5594096529    0.9904872434
O        1.1879000246   -1.7737240631    0.4707847229
O       -1.5360481300    1.8058085325    2.3515706758
O        1.0517078502   -1.5198710663   -1.7621200589
H        0.7154154840   -0.5708542449    2.4694857838
H       -0.8005265262    1.0675470925    4.1350987628
H       -1.6888387785    1.1207976767   -1.4106577060
H       -0.8305678635   -0.1299370246   -2.4580157566
H        1.3692540132    1.0242819183   -2.0251938311
H        0.5060976866    2.2655199101   -0.9699796738
H        1.5736127904   -2.3407164469   -1.6842145899
18   
torsion grid (150,)
C       -0.1590222869   -0.0365303411    2.1812677437
C       -0.6383484381    0.9228700960    3.0197421709
C       -0.1853639718    0.5984636002    0.8970555775
C        0.9112616149   -1.2328527556   -0.4810865650
C       -0.8239828829    0.3250747725   -1.5948354795
C        0.4601282475    1.0734580813   -1.5645118155
C        0.1744513799    0.0594128263   -0.4436862300
N       -0.6452607889    1.8343987337    0.9843268693
O        1.2305662232   -1.9096291907    0.4802449880
O       -0.9381911574    2.0454990909    2.3337178243
O        1.2124428298   -1.6248803200   -1.7529138412
H        0.1792321837   -1.0326636620    2.4151352096
H       -0.8146741636    0.9602233341    4.0867914506
H       -1.7260258762    0.8425327402   -1.2872174165
H       -0.9452992139   -0.4697605745   -2.3219803509
H        1.2327370510    0.7988612690   -2.2729872250
H        0.4417195006    2.1087880609   -1.2435422569
H        1.6826427378   -2.4749458607   -1.6614162545
18   
torsion grid (165,)
C       -0.3935036037    0.1349913232    2.2840913155
C       -0.8670539972    1.1124435084    3.1046046904
C       -0.2659724462    0.7943783019    1.0183202078
C        0.9019440107   -1.0400913256   -0.2940051697
C       -0.8449337072    0.4199509440   -1.4750695583
C        0.3978114290    1.2367887016   -1.4444117824
C        0.1556765111    0.2486795012   -0.3007655673
N       -0.6376597086    2.0599631657    1.0979689347
O        1.0148763014   -1.7998695979    0.6516150536
O       -1.0258870662    2.2671119662    2.4241767843
O        1.4361207768   -1.3418019558   -1.5121083806
H       -0.1528782273   -0.8892926272    2.5178447914
H       -1.1276880931    1.1434862713    4.1544859108
H       -1.7812312886    0.8916014221   -1.1970033914
H       -0.9112602655   -0.4025296682   -2.1789503867
H        1.1942100184    0.9858070044   -2.1344717827
H        0.3152648324    2.2799605318   -1.1616969948
H        1.8506913909   -2.2190521184   -1.4073879148
18   
torsion grid (180,)
C       -0.4295646176    0.1534706412    2.2470745282
C       -0.9007266121    1.1292125151    3.0709421034
C       -0.2565316443    0.8289270543    0.9953214995
C        0.9400842518   -0.9997861782   -0.2957940057
C       -0.8228846867    0.3929423742   -1.4906797886
C        0.3873033454    1.2612932789   -1.4751028700
C        0.1919143231    0.2904666781   -0.3172749703
N       -0.6007980708    2.1013345681    1.0844493407
O        0.8668532115   -1.8514268890    0.5720957211
O       -1.0167394285    2.2971758465    2.4046432977
O        1.6814610798   -1.1963970284   -1.4217369147
H       -0.2259056085   -0.8820833497    2.4669543006
H       -1.1871786608    1.1504017549    4.1143483379
H       -1.7796288341    0.8265547317   -1.2202024886
H       -0.8561406221   -0.4439448019   -2.1806095636
H        1.1899321075    1.0343683323   -2.1661126799
H        0.2585876671    2.3065480088   -1.2183930147
H        2.0538453533   -2.0950612781   -1.3391372840
