29   
torsion grid (-165,)
C       -5.8607275996   -4.1084273242    1.4873502988
C       -4.6570659354   -4.6729244153    1.9077729061
C       -6.1201009373   -2.7596763683    1.7457483695
C       -3.7081263471   -3.9149407007    2.6113076575
C       -5.2066173834   -1.9695194053    2.4527300736
C       -4.0218316358   -2.5772237030    2.9079838640
C       -4.0725810786   -2.1779338933    5.8344929570
C       -2.3740108182   -4.5318344834    2.9684877333
C       -5.4648432351   -0.5065459375    2.7087481120
C       -5.1096995554   -3.3997891983    7.7066359934
C       -2.8301650043   -2.0937859341    4.9330041849
N       -4.0146433918   -3.1716898589    6.7709671086
O       -5.0102557815   -1.3902937811    5.7561662437
O       -3.1197372892   -1.7554925630    3.5848978328
H       -6.5829342836   -4.7087866772    0.9400658246
H       -4.4311670530   -5.7102793968    1.6696556086
H       -7.0452100947   -2.3085886784    1.3945365328
H       -1.5692306599   -3.7924213484    2.9297645748
H       -2.3745407733   -4.9766665352    3.9720631617
H       -2.1292528884   -5.3339971157    2.2666873184
H       -5.4900137266   -0.3052870501    3.7821299853
H       -4.6674570914    0.1100788890    2.2804966535
H       -6.4149179390   -0.2010441482    2.2615039994
H       -4.7359189629   -3.9535727183    8.5711463729
H       -5.9287079584   -3.9608979663    7.2416657711
H       -5.4997093913   -2.4354249394    8.0354109478
H       -2.1963234152   -1.2849003996    5.3080014933
H       -2.2598791021   -3.0278837389    4.9880387864
H       -3.3095806686   -3.8890178568    6.6708141850
29   
torsion grid (-150,)
C       -5.8202413862   -4.0586950381    1.2974929057
C       -4.6379569912   -4.6449763970    1.7465059782
C       -6.0898110904   -2.7227061006    1.6069867090
C       -3.7214669557   -3.9247559436    2.5288896723
C       -5.2106883851   -1.9705499449    2.3934685012
C       -4.0501284795   -2.6030535702    2.8767860459
C       -4.1389709508   -2.2987534187    5.8676541407
C       -2.4042505403   -4.5640618898    2.9099448945
C       -5.4812343373   -0.5212560141    2.7068622293
C       -5.0167106796   -3.3170416627    7.9340058834
C       -2.9031774573   -2.2120987917    4.9561889693
N       -3.9567982764   -3.1100139986    6.9538213473
O       -5.1726518595   -1.6690567963    5.6729612627
O       -3.1793393421   -1.8110052090    3.6270133414
H       -6.5162706756   -4.6304631454    0.6891047279
H       -4.4011426222   -5.6701424916    1.4694828884
H       -6.9968430089   -2.2522603318    1.2346143933
H       -1.5935683237   -3.8299688869    2.9264548525
H       -2.4428599759   -5.0470918034    3.8947204571
H       -2.1396359797   -5.3402001548    2.1864203473
H       -5.5652219382   -0.3771755483    3.7862337989
H       -4.6620613518    0.1143687713    2.3541891923
H       -6.4058315905   -0.1906938013    2.2252273691
H       -4.5774498530   -3.6696332389    8.8702421020
H       -5.7572399050   -4.0456159174    7.5836324191
H       -5.5271407016   -2.3688193885    8.1092664823
H       -2.2377091226   -1.4430921844    5.3607879874
H       -2.3665288948   -3.1673253802    4.9790253404
H       -3.1568825800   -3.7281218156    6.9702629738
29   
torsion grid (-135,)
C       -5.7708130320   -4.0177584733    1.1032745433
C       -4.5914250757   -4.6126489537    1.5483446455
C       -6.0685940412   -2.7062818677    1.4834713757
C       -3.7086327041   -3.9279007746    2.3982982318
C       -5.2238330193   -1.9904960550    2.3386251802
C       -4.0698278248   -2.6362496358    2.8200952776
C       -4.1859283402   -2.3546707661    5.8864091345
C       -2.3881571029   -4.5676325781    2.7682967469
C       -5.5232982082   -0.5635584912    2.7209516236
C       -4.9731033223   -3.1190479163    8.0988170462
C       -2.9692215092   -2.3586371980    4.9434718643
N       -3.9414103368   -2.9843471573    7.0769472878
O       -5.2579451050   -1.8235736181    5.6221329298
O       -3.2288156024   -1.8804755124    3.6391155177
H       -6.4408100038   -4.5613926851    0.4421565916
H       -4.3293297991   -5.6146854399    1.2150914872
H       -6.9706033317   -2.2256658350    1.1118290679
H       -1.5959938885   -3.8202099902    2.8692622211
H       -2.4430917248   -5.1312385691    3.7084200117
H       -2.0842801571   -5.2757451181    1.9922519211
H       -5.6723191791   -0.4841288166    3.7998383332
H       -4.6891457697    0.0949743418    2.4569542201
H       -6.4196188713   -0.2086221677    2.2044274046
H       -4.5000713094   -3.2545992293    9.0745304838
H       -5.6378788828   -3.9676968667    7.8980944406
H       -5.5748142891   -2.2092125691    8.1133298464
H       -2.2092584934   -1.6875019599    5.3561535466
H       -2.5480994312   -3.3699611611    4.9252542962
H       -3.0905397698   -3.5217716386    7.1776427111
29   
torsion grid (-120,)
C       -5.3961008055   -4.6975987461    1.4668037217
C       -4.0099830867   -4.6969293957    1.2875178837
C       -5.9816272880   -3.7506512221    2.3054042890
C       -3.1910316873   -3.7899699924    1.9685798420
C       -5.2007460141   -2.8127475506    2.9989641846
C       -3.8042869089   -2.8855612852    2.8551039968
C       -2.2181765055   -3.1682319539    5.5393280010
C       -1.6999834158   -3.7636809924    1.7488137732
C       -5.8823546079   -1.7319549841    3.8099100523
C       -1.5930072339   -4.1373775557    7.7359290146
C       -2.9363804461   -1.9646650985    4.9025056982
N       -2.1902148939   -3.0987763146    6.9069995570
O       -1.7270894372   -4.0903214206    4.8995664011
O       -2.9667749678   -1.9666981550    3.4913124269
H       -6.0165864569   -5.4136418964    0.9340526094
H       -3.5513566286   -5.4108905144    0.6073279064
H       -7.0640700638   -3.7124648478    2.4088932709
H       -1.3683371314   -2.7685904474    1.4343297462
H       -1.1763197342   -4.0039343325    2.6763970387
H       -1.4140944259   -4.4825940839    0.9757376518
H       -6.0437486175   -2.0295920323    4.8538660213
H       -5.3025285661   -0.8047969108    3.8089893835
H       -6.8667793663   -1.5115581172    3.3873020208
H       -2.3560964601   -4.6856125916    8.3003857339
H       -0.8704766875   -3.7052898405    8.4359716269
H       -1.0774219031   -4.8338112700    7.0744028215
H       -3.9414749279   -1.9078148247    5.3351180880
H       -2.4076559731   -1.0489032665    5.1879848098
H       -2.6540558349   -2.3243988534    7.3640941663
29   
torsion grid (-105,)
C       -5.3680615491   -4.7716847387    1.6103035991
C       -3.9932371276   -4.7409298462    1.3605463030
C       -5.9371520949   -3.8167462595    2.4512000263
C       -3.1678165993   -3.7916122365    1.9724665945
C       -5.1489291365   -2.8380633824    3.0770346227
C       -3.7606470847   -2.8750484155    2.8605746007
C       -2.1903893203   -3.1277207087    5.4772596914
C       -1.6899183892   -3.7342165340    1.6821026593
C       -5.8183464026   -1.7558247421    3.8956826042
C       -1.8137804337   -4.2257676763    7.6696921069
C       -2.8095296524   -1.8757215796    4.8311837464
N       -2.3424278478   -3.1527586260    6.8378579162
O       -1.6010873904   -3.9987070551    4.8484030411
O       -2.9138866828   -1.9180971237    3.4238004939
H       -5.9944699972   -5.5195459217    1.1309032699
H       -3.5493080160   -5.4639657976    0.6801959422
H       -7.0134248888   -3.8057059032    2.6103767346
H       -1.4029409814   -2.7459865769    1.3076010778
H       -1.1182895996   -3.9159869268    2.5947467462
H       -1.4176937065   -4.4803242752    0.9301874389
H       -5.8853855160   -2.0165770583    4.9596317891
H       -5.2846677177   -0.8046467868    3.8142284718
H       -6.8413085432   -1.5972486394    3.5428756038
H       -2.6155032675   -4.8701979891    8.0485503346
H       -1.2534935487   -3.8150231542    8.5156785150
H       -1.1448994966   -4.8263805709    7.0529938923
H       -3.7776826115   -1.6800532739    5.3065311130
H       -2.1638303604   -1.0206973212    5.0575659793
H       -2.9127988237   -2.4410410771    7.2752088158
29   
torsion grid (-90,)
C       -5.3251880578   -4.8261632120    1.7568634396
C       -3.9674634857   -4.7689824583    1.4302846681
C       -5.8740846488   -3.8574856683    2.5958151210
C       -3.1369863889   -3.7755374040    1.9602430034
C       -5.0805083720   -2.8362151384    3.1416137673
C       -3.7070169810   -2.8403688522    2.8436968312
C       -2.1070682515   -3.0412930385    5.3700341766
C       -1.6779524169   -3.6911876411    1.5914514114
C       -5.7302053309   -1.7477328849    3.9671871358
C       -1.9738140334   -4.2862447168    7.5059000097
C       -2.6675225680   -1.7635710172    4.7235354350
N       -2.4291738538   -3.1648475382    6.6942004138
O       -1.3998407509   -3.8441823810    4.7712558001
O       -2.8568910053   -1.8427927040    3.3241485414
H       -5.9554731754   -5.6075006024    1.3399986620
H       -3.5409539664   -5.5061752961    0.7540352628
H       -6.9393010498   -3.8711223672    2.8169718012
H       -1.4444024644   -2.7206656748    1.1409046827
H       -1.0555703832   -3.7954745470    2.4829822805
H       -1.4173939279   -4.4754165707    0.8750933452
H       -5.7005103724   -1.9649727539    5.0425851218
H       -5.2454064946   -0.7806339322    3.8058353114
H       -6.7838888004   -1.6455201735    3.6930262139
H       -2.7527955516   -5.0508081298    7.6093953561
H       -1.6788928385   -3.9361999977    8.4995320409
H       -1.1127343469   -4.7342978153    7.0095724551
H       -3.5883205685   -1.4666073708    5.2390814251
H       -1.9392754633   -0.9618227680    4.8835422593
H       -3.1219160826   -2.5396009250    7.0834744660
29   
torsion grid (-75,)
C       -5.3073325714   -4.8959978438    1.9985025150
C       -3.9567605450   -4.8317018390    1.6451241047
C       -5.8645555099   -3.8885634688    2.7853526999
C       -3.1395262172   -3.7888208545    2.0962714535
C       -5.0844454122   -2.8194478030    3.2523804581
C       -3.7166685525   -2.8118147038    2.9283364484
C       -2.0914369241   -2.9238917789    5.3871317028
C       -1.6897303443   -3.6941537525    1.6938294787
C       -5.7386593379   -1.6957255059    4.0250273252
C       -2.1991441516   -4.3723788658    7.3766509781
C       -2.6526441107   -1.6509195973    4.7335750816
N       -2.6119235046   -3.1952278962    6.6212133097
O       -1.2136424929   -3.6080646015    4.8695378861
O       -2.8832213163   -1.7703732324    3.3389669018
H       -5.9269042888   -5.7148768915    1.6419899134
H       -3.5257725776   -5.6007269852    1.0083496180
H       -6.9254074141   -3.9113473620    3.0259348841
H       -1.4925145503   -2.7529090370    1.1697246521
H       -1.0451204448   -3.7156563896    2.5755221939
H       -1.4214662484   -4.5209731593    1.0302268105
H       -5.6950178577   -1.8542719484    5.1103721428
H       -5.2652791822   -0.7341180010    3.8080701197
H       -6.7964676132   -1.6197655995    3.7583383052
H       -2.6955131959   -5.2800158828    7.0138902059
H       -2.4387013941   -4.2251600223    8.4324018673
H       -1.1219438458   -4.5041722409    7.2647499579
H       -3.5564727404   -1.3232523206    5.2604368654
H       -1.9051835769   -0.8601988026    4.8483868167
H       -3.4499978500   -2.7086153772    6.9084708081
29   
torsion grid (-60,)
C       -5.2611971027   -4.9592516549    2.2381073085
C       -3.9168810365   -4.8920539905    1.8618782656
C       -5.8351446657   -3.9066960956    2.9512425840
C       -3.1196692155   -3.7973453198    2.2177416057
C       -5.0753177389   -2.7871437286    3.3227057483
C       -3.7129035039   -2.7724791159    2.9775865767
C       -2.0280969156   -2.7935138224    5.3379585918
C       -1.6785735047   -3.6973022374    1.7842455716
C       -5.7387386333   -1.6215722056    4.0219832918
C       -2.3294399065   -4.5207884159    7.0622819564
C       -2.6270673714   -1.5305379863    4.6998969775
N       -2.7180217322   -3.2721998478    6.4160494538
O       -0.9942263885   -3.3117591636    4.9236995676
O       -2.9040425527   -1.6856494828    3.3112698780
H       -5.8643939644   -5.8180331158    1.9549755408
H       -3.4757701321   -5.6982677936    1.2804530732
H       -6.8922130143   -3.9362148695    3.2073875448
H       -1.5182091130   -2.7982703275    1.1797320632
H       -1.0141095286   -3.6261381318    2.6485836146
H       -1.3974044326   -4.5690200133    1.1868788740
H       -5.7109440065   -1.7185304790    5.1153372549
H       -5.2588154196   -0.6750788555    3.7597630227
H       -6.7927588609   -1.5589276728    3.7371631288
H       -2.6365417226   -5.3925039848    6.4726021596
H       -2.7880904600   -4.5710928925    8.0525106464
H       -1.2436155960   -4.5421953473    7.1648917026
H       -3.5229543797   -1.2125060593    5.2460237491
H       -1.8886608955   -0.7286551112    4.7765425797
H       -3.6601115308   -2.9348046911    6.5610953406
29   
torsion grid (-45,)
C       -5.2377672604   -4.9944304118    2.4729445666
C       -3.8909300634   -4.9416471042    2.1033740622
C       -5.8306260448   -3.8942174784    3.0933750692
C       -3.1093130738   -3.8116286114    2.3752235422
C       -5.0859843007   -2.7401405594    3.3798550876
C       -3.7209220417   -2.7360157169    3.0444469171
C       -1.9764423403   -2.6622832451    5.3328102891
C       -1.6663599695   -3.7286150717    1.9406967156
C       -5.7601006286   -1.5303952430    3.9879052636
C       -2.3768398849   -4.6561951667    6.7101468728
C       -2.6204475768   -1.4211588308    4.6979130591
N       -2.7843697481   -3.3563651307    6.1886843741
O       -0.8241029265   -3.0036106346    5.0736360620
O       -2.9300208382   -1.6193363708    3.3149874358
H       -5.8284252241   -5.8804957183    2.2551592864
H       -3.4361485171   -5.7866868582    1.5917696529
H       -6.8894492344   -3.9161318249    3.3429015364
H       -1.5158248484   -2.8795332556    1.2658024790
H       -0.9988739247   -3.5803423428    2.7927677252
H       -1.3726085158   -4.6418562156    1.4159774380
H       -5.7342468833   -1.5431104280    5.0853788346
H       -5.2824722109   -0.6043294376    3.6579180660
H       -6.8136436578   -1.4959407266    3.6967921767
H       -2.4647071592   -5.4399580127    5.9483605553
H       -3.0027104060   -4.9112018208    7.5683606535
H       -1.3345560428   -4.5990060872    7.0265589758
H       -3.5152017647   -1.1206299416    5.2562309829
H       -1.9008958523   -0.6017509302    4.7380092119
H       -3.7743077145   -3.1492667338    6.1647124000
29   
torsion grid (-30,)
C       -5.3367046048   -4.9644057617    2.5653019509
C       -3.9669177753   -4.9792955758    2.2848305595
C       -5.9284144359   -3.8094327238    3.0775613131
C       -3.1656317791   -3.8604558909    2.5413080373
C       -5.1644455764   -2.6620274310    3.3427396324
C       -3.7819588301   -2.7240163433    3.0967785505
C       -1.9311880589   -2.5393205410    5.3903792786
C       -1.6911916710   -3.8555492619    2.2159109460
C       -5.8274591641   -1.3968080281    3.8391028664
C       -2.1353711480   -4.7775556772    6.3852915023
C       -2.7095291308   -1.3820382933    4.7495050601
N       -2.7119055090   -3.5069537976    5.9606029977
O       -0.7028462145   -2.5941949475    5.3637894278
O       -2.9758653538   -1.6182724691    3.3586692355
H       -5.9435030995   -5.8431496443    2.3631272045
H       -3.5105385603   -5.8699260949    1.8591641862
H       -7.0007858317   -3.7832540283    3.2589651017
H       -1.4515036992   -3.0450860500    1.5202616409
H       -1.0745084689   -3.6956432291    3.1037202921
H       -1.3982444159   -4.8031323938    1.7559298081
H       -5.8875535837   -1.3621002583    4.9341037138
H       -5.2804632156   -0.5100484480    3.5097360263
H       -6.8513824322   -1.3305031466    3.4607588115
H       -1.9155873235   -5.4266320399    5.5288034212
H       -2.8367112682   -5.2845778797    7.0517791710
H       -1.2044672791   -4.5829631818    6.9192250979
H       -3.6432818533   -1.1952325104    5.2932738829
H       -2.0896984670   -0.4866606614    4.7955642844
H       -3.6975865798   -3.5000561293    5.7277195029
29   
torsion grid (-15,)
C       -5.4310669625   -4.9274619370    2.5398399829
C       -4.0524653187   -4.9821637764    2.3101587978
C       -6.0069817424   -3.7537976736    3.0267210095
C       -3.2316552051   -3.8834848877    2.5886055765
C       -5.2220276516   -2.6251207926    3.3112781199
C       -3.8343537603   -2.7233607006    3.1104718230
C       -1.9211900389   -2.4322196805    5.4500162218
C       -1.7442604190   -3.9233297530    2.3370773978
C       -5.8652514061   -1.3418335199    3.7844396175
C       -1.9246643681   -4.7434674419    6.2955033100
C       -2.7595004655   -1.3477348467    4.7588583394
N       -2.6149947234   -3.5510153428    5.8201129827
O       -0.7175796316   -2.2868001302    5.6583630794
O       -3.0083376501   -1.6358372407    3.3725751880
H       -6.0546409535   -5.7903909662    2.3214629967
H       -3.6054015097   -5.8891745685    1.9099918804
H       -7.0833903912   -3.6982298725    3.1739107196
H       -1.4403992035   -3.1174840345    1.6620761261
H       -1.1701655402   -3.7875465190    3.2581942080
H       -1.4550242999   -4.8781208988    1.8901281012
H       -5.9512062529   -1.3033164582    4.8773488092
H       -5.2873606089   -0.4706897634    3.4663762461
H       -6.8769979915   -1.2510533865    3.3794680602
H       -1.4921402056   -5.3191210487    5.4675473862
H       -2.6309255001   -5.3745978186    6.8397694505
H       -1.1176387488   -4.4419583442    6.9643332688
H       -3.7018286650   -1.1898455636    5.2966165284
H       -2.1789267142   -0.4261471414    4.7694473787
H       -3.5507045656   -3.6670573489    5.4506126029
29   
torsion grid (0,)
C       -5.3041148690   -4.0298960607    0.5058902563
C       -3.9865703123   -4.3681828156    0.8233946685
C       -6.0570088479   -3.2535320335    1.3888215601
C       -3.4088164406   -3.9431560454    2.0262931369
C       -5.5171234138   -2.8134336261    2.6056201563
C       -4.1956317577   -3.1785799630    2.9038550818
C       -4.7438615242   -3.3382615767    6.1647923916
C       -1.9787247524   -4.2803524280    2.3741979670
C       -6.3364973137   -1.9794840945    3.5608875565
C       -5.8633521941   -1.5288247192    7.4017704440
C       -3.6058867945   -3.6358080829    5.1816221968
N       -4.7422328431   -2.0548803329    6.6340148729
O       -5.5763437000   -4.1848236710    6.4848607508
O       -3.6042362519   -2.7145829025    4.0806829167
H       -5.7398176126   -4.3622393676   -0.4327185591
H       -3.3943284871   -4.9595870460    0.1288324860
H       -7.0792780577   -2.9823101842    1.1354297347
H       -1.4457723536   -3.3987945042    2.7423333394
H       -1.9222347842   -5.0413620408    3.1614677926
H       -1.4486409215   -4.6702513235    1.5013878143
H       -6.6765546885   -2.5754062207    4.4141923147
H       -5.7557261533   -1.1412141956    3.9555609914
H       -7.2223336038   -1.5802046735    3.0598103400
H       -6.7009394203   -1.2365726207    6.7553030347
H       -5.5334742253   -0.6605030470    7.9773609636
H       -6.2123541247   -2.3027259371    8.0862544343
H       -2.6425459631   -3.5130147321    5.6901232618
H       -3.6976746604   -4.6753933009    4.8619991317
H       -4.1689501985   -1.3963136536    6.1200611126
29   
torsion grid (15,)
C       -4.6289079334   -4.0553464625    0.0711956840
C       -3.4529251775   -3.8940300022    0.8092779009
C       -5.8667634649   -3.8008309241    0.6644790379
C       -3.4980167546   -3.4867535058    2.1481497557
C       -5.9549705248   -3.3936679716    2.0034553665
C       -4.7583460864   -3.2537853950    2.7218600396
C       -4.7621698105   -3.3136454213    6.4099962337
C       -2.2380511350   -3.2736407215    2.9534747912
C       -7.2895864058   -3.1078756727    2.6498855986
C       -3.3489921899   -1.7875306238    7.7310118076
C       -5.0192726230   -3.8525719937    5.0041115835
N       -3.6694367664   -2.5033926195    6.5035537795
O       -5.4895797975   -3.6150764806    7.3541190035
O       -4.8028182158   -2.8116397053    4.0437649325
H       -4.5788894573   -4.3692890584   -0.9681140698
H       -2.4888029340   -4.0805537967    0.3419435118
H       -6.7797508391   -3.9113337539    0.0836553718
H       -2.1439570565   -2.2268798277    3.2642261826
H       -2.2237323993   -3.8830634465    3.8633149378
H       -1.3531158211   -3.5304575576    2.3656761738
H       -7.6666681906   -3.9828619779    3.1927267845
H       -7.2135829614   -2.2874575744    3.3678933958
H       -8.0368233242   -2.8455543532    1.8960754785
H       -3.8547836073   -0.8152049363    7.7808069182
H       -2.2684402524   -1.6330036313    7.7942485257
H       -3.6769610437   -2.3902101427    8.5784135392
H       -4.3234943776   -4.6820261575    4.8131463297
H       -6.0312017931   -4.2651627576    4.9751645010
H       -3.3050014035   -2.1547888844    5.6248195805
29   
torsion grid (30,)
C       -4.5988958210   -4.0556427486    0.0765615584
C       -3.4353914382   -3.9029431538    0.8358076373
C       -5.8450579488   -3.7890670244    0.6467515837
C       -3.5021379067   -3.4907345227    2.1724258196
C       -5.9537935534   -3.3772859041    1.9828001717
C       -4.7700042905   -3.2438012969    2.7231126401
C       -4.7045621665   -3.3466750652    6.4090481221
C       -2.2553616306   -3.2877800946    3.0001457038
C       -7.2978312249   -3.0823282680    2.6049056938
C       -3.3105788343   -1.7622360354    7.6827399086
C       -5.0772087259   -3.8269577254    5.0086488651
N       -3.7286639619   -2.3993961105    6.4424522949
O       -5.2482859172   -3.8295797751    7.4013170343
O       -4.8338554361   -2.7972319426    4.0428380203
H       -4.5326884406   -4.3733108779   -0.9607043233
H       -2.4644598062   -4.1003762968    0.3874126370
H       -6.7483968567   -3.8946229916    0.0501485643
H       -2.1403698911   -2.2355586298    3.2845365430
H       -2.2779234447   -3.8688956506    3.9276659035
H       -1.3649932296   -3.5830563689    2.4392388449
H       -7.6850565005   -3.9518169158    3.1495075139
H       -7.2312856140   -2.2550069252    3.3160986389
H       -8.0325464056   -2.8253286149    1.8371188746
H       -3.8913325510   -0.8550677674    7.8905664384
H       -2.2501835991   -1.5018842002    7.6238085963
H       -3.4644269373   -2.4655527881    8.5018150076
H       -4.4663124681   -4.7100575444    4.7779017573
H       -6.1226685170   -4.1479109523    5.0267663904
H       -3.4962997562   -1.9702376078    5.5547928240
29   
torsion grid (45,)
C       -4.6079634713   -3.9778904259   -0.0794518521
C       -3.4775537866   -3.8808304788    0.7367675990
C       -5.8729789769   -3.6993290453    0.4418732788
C       -3.5958416637   -3.5104232044    2.0821759068
C       -6.0330345679   -3.3292578248    1.7848447984
C       -4.8817631034   -3.2483863565    2.5813959639
C       -4.8658170441   -3.5119874918    6.2555908847
C       -2.3850831694   -3.3691614402    2.9735686228
C       -7.3970644976   -3.0304111201    2.3596122344
C       -3.6156903998   -1.8727105257    7.6148766219
C       -5.2783412906   -3.8997713636    4.8383627427
N       -4.0703370630   -2.4148452474    6.3440403422
O       -5.2361979863   -4.1962371674    7.2093607995
O       -4.9976742601   -2.8441439201    3.9105189765
H       -4.5014283372   -4.2630134666   -1.1227979444
H       -2.4920076878   -4.0894721525    0.3269966759
H       -6.7499531520   -3.7634097902   -0.1983439629
H       -2.2593044263   -2.3322439442    3.3045211100
H       -2.4656767772   -3.9818536672    3.8770545030
H       -1.4768415206   -3.6665804903    2.4433208114
H       -7.8171082928   -3.9096324722    2.8629933634
H       -7.3481959618   -2.2244613897    3.0963833516
H       -8.0966374117   -2.7411101219    1.5707617108
H       -4.1626399787   -0.9599781271    7.8795496956
H       -2.5458242906   -1.6462326052    7.5703417058
H       -3.7925711474   -2.6229168498    8.3862589120
H       -4.7266128222   -4.8070465026    4.5645243797
H       -6.3441057847   -4.1496937196    4.8528737207
H       -3.9115600181   -1.9040467990    5.4840478842
29   
torsion grid (60,)
C       -4.9807677908   -4.0238060179    0.2010255141
C       -3.6931935558   -4.2166970597    0.7051088742
C       -5.9783709711   -3.4831224277    1.0174020152
C       -3.3805303564   -3.8827264532    2.0306732115
C       -5.7051051603   -3.1347670258    2.3458401709
C       -4.4039406277   -3.3501852816    2.8278136421
C       -4.5179428094   -3.4651315234    6.5005269976
C       -1.9915181396   -4.0893571471    2.5859276436
C       -6.7591929668   -2.5269147233    3.2399852708
C       -4.9731301779   -1.4167352110    7.8048095061
C       -4.2240386046   -4.0195332308    5.1092982780
N       -4.6825014636   -2.1196469095    6.5655076703
O       -4.5986998162   -4.2369484541    7.4565143434
O       -4.1233363985   -2.9687922052    4.1386733978
H       -5.2059097300   -4.2873103619   -0.8290778219
H       -2.9155386062   -4.6267615950    0.0646274638
H       -6.9786981143   -3.3258259320    0.6207796629
H       -1.7306126128   -3.3042314666    3.3003143736
H       -1.9116647481   -5.0496881792    3.1096482258
H       -1.2484301708   -4.0925706485    1.7839096458
H       -6.9037826528   -3.1086692063    4.1560999481
H       -6.4767359295   -1.5146324882    3.5492771888
H       -7.7199457001   -2.4678696271    2.7222966685
H       -5.9557914084   -0.9335410994    7.7622274637
H       -4.2116740799   -0.6560154030    8.0078156593
H       -4.9726404319   -2.1473541804    8.6143450410
H       -3.2890118240   -4.5880769291    5.1646256217
H       -5.0270927679   -4.7171956759    4.8492270726
H       -4.5949895812   -1.6108827934    5.6942017331
29   
torsion grid (75,)
C       -4.9607702057   -4.0318712493    0.2089705179
C       -3.6802109553   -4.2413766563    0.7243156484
C       -5.9556901517   -3.4752145715    1.0175658813
C       -3.3727600250   -3.9107302307    2.0518203018
C       -5.6885807157   -3.1282247812    2.3476957312
C       -4.3949031561   -3.3633785427    2.8409178726
C       -4.4331375558   -3.4749971175    6.5221132902
C       -1.9896087543   -4.1322724500    2.6158663843
C       -6.7407211653   -2.4977209444    3.2287567019
C       -4.9976536189   -1.4463323563    7.8130968832
C       -4.2345729216   -4.0427630618    5.1194131707
N       -4.8094722269   -2.1708397216    6.5658589523
O       -4.2728851998   -4.2000751111    7.5039651455
O       -4.1176002076   -2.9852245857    4.1535227887
H       -5.1816638804   -4.2935416474   -0.8225375832
H       -2.9030104739   -4.6622468252    0.0903735891
H       -6.9502205104   -3.3030072721    0.6126658694
H       -1.7185965471   -3.3412247579    3.3199355613
H       -1.9264092189   -5.0857928261    3.1539668934
H       -1.2440347211   -4.1593310810    1.8166561718
H       -6.8948475486   -3.0625407709    4.1537761825
H       -6.4512963075   -1.4820677604    3.5210048711
H       -7.6989641777   -2.4377385951    2.7064835130
H       -6.0032941372   -1.0153289770    7.8642474944
H       -4.2603422623   -0.6421957168    7.9155129597
H       -4.8701394626   -2.1517478880    8.6347947706
H       -3.3387594654   -4.6703146171    5.1297636244
H       -5.1016795545   -4.6692029662    4.8793391564
H       -4.8162630611   -1.6765925874    5.6818217249
29   
torsion grid (90,)
C       -4.9675785006   -4.1057756265    0.3226778210
C       -3.6688710616   -4.2971073953    0.7976777430
C       -5.9380332277   -3.5373341529    1.1525631545
C       -3.3193495731   -3.9364766519    2.1069692927
C       -5.6275745010   -3.1620021390    2.4653391353
C       -4.3170875726   -3.3798605720    2.9210727756
C       -4.0734613205   -3.4113181211    6.5985710332
C       -1.9141571276   -4.1343671866    2.6234909247
C       -6.6533226908   -2.5171558390    3.3669680632
C       -4.7021992414   -1.4296349853    7.9161114821
C       -4.0485242947   -4.0204691150    5.1986715720
N       -4.6794086256   -2.1958190891    6.6778440718
O       -3.5996995013   -4.0199044414    7.5570520609
O       -3.9995254307   -2.9711957561    4.2153357280
H       -5.2215722081   -4.3897895958   -0.6951875303
H       -2.9104429952   -4.7253908792    0.1461082043
H       -6.9465373254   -3.3780185567    0.7780099432
H       -1.6334290482   -3.3403403189    3.3201356658
H       -1.8145982688   -5.0882127031    3.1554489290
H       -1.1961683988   -4.1458125396    1.7989835956
H       -6.7751422106   -3.0633275570    4.3080473848
H       -6.3597847911   -1.4935622951    3.6262496879
H       -7.6285606546   -2.4724084511    2.8754827598
H       -5.5571339290   -0.7487421157    7.9055176911
H       -3.7818307023   -0.8490128496    8.0547467467
H       -4.8014575849   -2.1205176423    8.7542323927
H       -3.1815954197   -4.6812388304    5.1252142546
H       -4.9666453198   -4.6031086466    5.0516828324
H       -4.8462006994   -1.7260391308    5.7959879681
29   
torsion grid (105,)
C       -4.9691498702   -4.1116691331    0.3670122867
C       -3.6758375439   -4.3197366959    0.8493634771
C       -5.9375457022   -3.5310924311    1.1910575498
C       -3.3291373903   -3.9650367827    2.1611263223
C       -5.6303185205   -3.1615664477    2.5060679932
C       -4.3256998557   -3.3979014768    2.9695274992
C       -4.0010521583   -3.4247351989    6.6363736386
C       -1.9287418276   -4.1787928955    2.6847309160
C       -6.6534391431   -2.5044966701    3.4021005518
C       -4.6712556413   -1.4900139122    7.9994069201
C       -4.0911738519   -4.0495858246    5.2445757961
N       -4.7520035931   -2.2967433230    6.7886369794
O       -3.3130885011   -3.9257739873    7.5235185765
O       -4.0107339571   -2.9965026416    4.2666620296
H       -5.2204507765   -4.3912003339   -0.6527602684
H       -2.9188368046   -4.7560801183    0.2014663953
H       -6.9411509208   -3.3572222551    0.8098750864
H       -1.6502161580   -3.3999161989    3.3988419099
H       -1.8369282650   -5.1431842630    3.1987334979
H       -1.2046165033   -4.1772401742    1.8654534667
H       -6.8247873521   -3.0780895420    4.3194843610
H       -6.3257979173   -1.5029822918    3.7029385511
H       -7.6127586710   -2.4040542738    2.8880777886
H       -5.5728799061   -0.8785221647    8.0861434726
H       -3.7903664918   -0.8360581001    7.9984252694
H       -4.6030493526   -2.1547837143    8.8613631416
H       -3.2781153998   -4.7699325779    5.1328884485
H       -5.0605172113   -4.5520476849    5.1302647362
H       -5.0613185189   -1.8571845917    5.9298525944
29   
torsion grid (120,)
C       -4.9360184871   -4.1200466141    0.3352706508
C       -3.6530278935   -4.3343376488    0.8419248905
C       -5.9125197794   -3.5213633018    1.1365256456
C       -3.3246124162   -3.9677807837    2.1551964052
C       -5.6230646674   -3.1408254250    2.4523980190
C       -4.3286863366   -3.3828309105    2.9413682954
C       -3.9255358020   -3.3560009946    6.5928590763
C       -1.9343826553   -4.1855756258    2.7034781396
C       -6.6551473480   -2.4662908256    3.3249547541
C       -4.6474344954   -1.4872707003    8.0196554010
C       -4.1271594542   -4.0094511070    5.2252440870
N       -4.8141385899   -2.3520766174    6.8577062852
O       -3.0355526473   -3.7103988485    7.3620229372
O       -4.0304960151   -2.9657941596    4.2369872494
H       -5.1725476479   -4.4079657490   -0.6857143727
H       -2.8891702854   -4.7841180078    0.2114707412
H       -6.9077462942   -3.3415843804    0.7364631598
H       -1.6623113120   -3.4021727848    3.4149928401
H       -1.8567428748   -5.1453354432    3.2284157377
H       -1.1974424090   -4.1968664076    1.8957796212
H       -6.8814872655   -3.0562915794    4.2204813950
H       -6.3032044164   -1.4849894345    3.6615296040
H       -7.5913345142   -2.3218096165    2.7796653830
H       -5.6005913487   -1.0046729055    8.2497177650
H       -3.8828595393   -0.7183234760    7.8527106002
H       -4.3393611625   -2.0976317022    8.8692373620
H       -3.3590551452   -4.7722503008    5.0841175682
H       -5.1282447801   -4.4548285680    5.1568975235
H       -5.3006252456   -1.9761355436    6.0522429515
29   
torsion grid (135,)
C       -5.9917397849   -3.8948467513    1.0756864809
C       -4.6137111311   -4.0903969920    0.9378027080
C       -6.4932171002   -3.2582435289    2.2113177979
C       -3.7216582278   -3.6297500262    1.9127160102
C       -5.6341603724   -2.7886347732    3.2174850212
C       -4.2515090454   -2.9614816564    3.0326951464
C       -2.4333164087   -0.5539399464    2.8021899843
C       -2.2328359397   -3.8394692031    1.7837701651
C       -6.1922692902   -2.1500461773    4.4685914678
C       -2.6980796926   -0.0691395627    0.4016311783
C       -3.1364531930   -1.0957413231    4.0544687196
N       -3.2474535071   -0.3646585726    1.7191777591
O       -1.2289886395   -0.3038687281    2.7935689295
O       -3.3543953696   -2.5174373634    3.9974933635
H       -6.6721571457   -4.2552375954    0.3086813606
H       -4.2236303633   -4.6059508190    0.0632836776
H       -7.5670517920   -3.1358593425    2.3351084059
H       -1.6901181000   -2.8915392228    1.7249723718
H       -1.8359882608   -4.3692431270    2.6550164436
H       -2.0027237667   -4.4224581708    0.8880954729
H       -5.5351838841   -2.3206355601    5.3248359571
H       -6.3180670815   -1.0660795760    4.3562917855
H       -7.1769422813   -2.5648766312    4.7014398639
H       -3.4646962723    0.4126600655   -0.2098986852
H       -2.3521117898   -0.9782537207   -0.1062028014
H       -1.8500717968    0.6062250837    0.5188195390
H       -2.4708126311   -0.9359241696    4.9015376832
H       -4.0823899253   -0.5688017444    4.2252196220
H       -4.1730315263   -0.7745102503    1.7552588831
29   
torsion grid (150,)
C       -5.9396550117   -3.8879874108    1.0611817613
C       -4.5629971928   -4.0985159495    0.9356445297
C       -6.4425641166   -3.2392985316    2.1892770540
C       -3.6704916632   -3.6388272911    1.9113937095
C       -5.5835177500   -2.7695203514    3.1951277869
C       -4.2009362927   -2.9528803318    3.0195805398
C       -2.4067499902   -0.6031019592    2.7077013057
C       -2.1850827318   -3.8828850896    1.7959238765
C       -6.1448562851   -2.1228509393    4.4412184257
C       -2.7630906975   -0.0236011592    0.3402496145
C       -3.1044325996   -1.0712428975    3.9911851636
N       -3.2549719044   -0.2520528279    1.6935523665
O       -1.1817733906   -0.5851792226    2.6015807284
O       -3.3087640419   -2.4945853695    3.9863120936
H       -6.6183045099   -4.2492947884    0.2929470756
H       -4.1728520763   -4.6293826853    0.0703312140
H       -7.5161630336   -3.1090169374    2.3077449534
H       -1.6223016919   -2.9518754281    1.6889447096
H       -1.8009082003   -4.3744911901    2.6946832592
H       -1.9685191129   -4.5180167010    0.9327771170
H       -5.4847875154   -2.2792194388    5.2977816800
H       -6.2817860200   -1.0410083719    4.3200492530
H       -7.1253406352   -2.5444750842    4.6797646465
H       -3.4790128278    0.5948845373   -0.2063999655
H       -2.6152037055   -0.9671471982   -0.1996223548
H       -1.8061099275    0.4956585510    0.3994972633
H       -2.4491994351   -0.8646312224    4.8368915109
H       -4.0634062645   -0.5578037603    4.1253307170
H       -4.2292119648   -0.5087694881    1.7965139789
29   
torsion grid (165,)
C       -5.8964426005   -4.2846646013    1.9960906577
C       -4.6165203159   -4.7861185287    2.2351382201
C       -6.1701997876   -2.9356187129    2.2381609487
C       -3.6021576397   -3.9614486834    2.7446452469
C       -5.1889535119   -2.0783465424    2.7519123586
C       -3.9215015691   -2.6223772891    3.0290983671
C       -3.8344000923   -1.9985172058    5.8307951127
C       -2.2019099316   -4.5029030147    2.9290883649
C       -5.4630436011   -0.6110541713    2.9746185846
C       -5.4728775605   -3.4010696799    7.0048371263
C       -2.6018176145   -2.0023703244    4.9149994111
N       -4.2087930158   -3.2273106708    6.2976088627
O       -4.4390207849   -0.9640678489    6.1055323904
O       -2.9559337319   -1.7598921564    3.5471028600
H       -6.6710826461   -4.9354951472    1.5988660041
H       -4.3883688441   -5.8250545011    2.0061895485
H       -7.1584675483   -2.5363960018    2.0222631218
H       -1.4532206341   -3.7197246885    2.7850853023
H       -2.0453805418   -4.9311982381    3.9278033602
H       -2.0056293579   -5.3016891775    2.2084441575
H       -5.3198054284   -0.3309193813    4.0208155730
H       -4.7760498912    0.0029438629    2.3829172541
H       -6.4866169153   -0.3648409363    2.6791210608
H       -5.4664532068   -4.3643996242    7.5197801735
H       -6.3263468729   -3.3595868213    6.3176838736
H       -5.5813197120   -2.6000885299    7.7372255892
H       -1.9499048582   -1.1768832125    5.2039173847
H       -2.0538630986   -2.9476676198    5.0005406851
H       -3.8154336736   -4.0375799854    5.8367278092
29   
torsion grid (180,)
C       -5.8984109722   -4.1837209491    1.7351799597
C       -4.6629650079   -4.7271459230    2.0871720379
C       -6.1512693329   -2.8287774383    1.9660150534
C       -3.6740758101   -3.9394884113    2.6959213668
C       -5.1959440224   -2.0082167453    2.5777317477
C       -3.9763326052   -2.5933495804    2.9652201732
C       -3.9637655218   -2.0952529758    5.8190934306
C       -2.3135682904   -4.5313278006    2.9892749742
C       -5.4458532032   -0.5375829414    2.7987153943
C       -5.2547251023   -3.4930958649    7.3781471288
C       -2.7192712050   -2.0301552732    4.9200134636
N       -4.0829794211   -3.2457982210    6.5457072956
O       -4.7691449225   -1.1709565582    5.8958080338
O       -3.0346938488   -1.7514272636    3.5576390639
H       -6.6525789173   -4.8065744728    1.2610531402
H       -4.4465680015   -5.7709874189    1.8693868349
H       -7.1029280000   -2.3963008267    1.6661086143
H       -1.5239637484   -3.7816184568    2.8903706065
H       -2.2492275068   -4.9523650903    4.0013091435
H       -2.0971288328   -5.3470927556    2.2938966520
H       -5.3900743970   -0.2891701955    3.8611787058
H       -4.6888935453    0.0652389251    2.2858864872
H       -6.4300054160   -0.2546588599    2.4149806753
H       -5.0259136349   -4.2851611282    8.0948611777
H       -6.1227871581   -3.7854162086    6.7757452537
H       -5.5047473774   -2.5781233775    7.9170653084
H       -2.0983302334   -1.1960764117    5.2554656070
H       -2.1366035698   -2.9549954667    4.9983912549
H       -3.5076173126   -4.0347832448    6.2839190609
