20   
torsion grid (-165,)
C        1.8704800886    0.3982678848   -1.3378078003
C        1.2294331259   -2.3631920903   -1.2561443016
C        0.5581989891    0.0017823895   -0.7013906332
C        0.6310337645   -1.4464940251   -0.2073735733
C        2.4115665841    2.5538697255    0.0505937396
C        1.4021040714    2.9574997033   -1.0082969093
C        2.3456249049    1.8057703098   -1.2594910367
N        2.5794077581   -0.4322453828   -2.0173546154
N        2.0988008437   -1.7279289143   -2.1209848219
O        1.0053829785   -3.5653301858   -1.3370283383
F        3.3643544129    2.0889859262   -2.1429421237
H        0.2807386824    0.6686718957    0.1185282394
H       -0.2250844263    0.0996796704   -1.4659801639
H       -0.3485647217   -1.8383212935    0.0715863963
H        1.2754324993   -1.5145154485    0.6781835136
H        3.2817068287    3.1885500313    0.1831528282
H        2.0631694222    2.0526352595    0.9485294923
H        0.3488081666    2.7563307305   -0.8442499789
H        1.6149946425    3.8552719009   -1.5793316194
H        2.6566739369   -2.3224544928   -2.7237779312
20   
torsion grid (-150,)
C        1.8031343909    0.4087047754   -1.1916668565
C        0.6713734038   -2.1756099223   -1.5147275648
C        1.7019751701   -0.4683335376    0.0340560174
C        1.6363885770   -1.9450536590   -0.3692425247
C        3.9720957604    1.8471009366   -0.8728794546
C        2.9764463128    2.3422532005    0.1616267510
C        2.4904411537    1.7316724338   -1.1289881688
N        1.2233003872    0.1073405087   -2.2996413700
N        0.5168267077   -1.0810426558   -2.3422989694
O        0.0937505896   -3.2337229956   -1.7345569662
F        1.9734616873    2.6522621727   -2.0192202272
H        2.5346687523   -0.3057429407    0.7226007593
H        0.7895037680   -0.1773109493    0.5731764798
H        1.3425901354   -2.5885232568    0.4617824423
H        2.6203540273   -2.2870924401   -0.7143866138
H        4.5004737473    2.5896553541   -1.4622864433
H        4.5253972320    0.9341032664   -0.6733273452
H        2.8627847014    1.8014874285    1.0946607915
H        2.8366284036    3.4157467119    0.2352806594
H        0.0163878260   -1.2301950092   -3.2113781438
20   
torsion grid (-135,)
C        1.7967808413    0.4062340967   -1.1462663444
C        0.7133470962   -2.1913349499   -1.5356240610
C        1.5756727926   -0.4503031746    0.0773242379
C        1.5529372298   -1.9349549713   -0.3006530751
C        3.9542465495    1.9006814442   -1.0253423735
C        3.1132253140    2.2803510499    0.1837102242
C        2.4569932107    1.7472575720   -1.0606448997
N        1.3430755743    0.0750310211   -2.3039512164
N        0.6493275693   -1.1151121398   -2.4002358733
O        0.1613335252   -3.2539112131   -1.7940600595
F        1.7911846639    2.7129471751   -1.7990501266
H        2.3323902464   -0.2682752460    0.8432356038
H        0.6132231933   -0.1522747677    0.5175608439
H        1.1746883625   -2.5629196630    0.5077766406
H        2.5675209759   -2.2817316515   -0.5348435958
H        4.3668121552    2.7047330465   -1.6266488579
H        4.5553252170    0.9974891366   -0.9812687729
H        3.1652652719    1.6679797162    1.0773561997
H        2.9607658896    3.3393940454    0.3644364520
H        0.2438670552   -1.2835811044   -3.3142276935
20   
torsion grid (-120,)
C        1.7770238983    0.4150384720   -1.1049050313
C        0.7730649831   -2.2044382715   -1.5417600205
C        1.4348429416   -0.4149598108    0.1083489752
C        1.4758168578   -1.9079530534   -0.2323641835
C        3.9087841456    1.9487480553   -1.1736979074
C        3.2587061924    2.1928237047    0.1827895821
C        2.4305381424    1.7596663411   -0.9911349269
N        1.4612317526    0.0473515020   -2.2973469502
N        0.7839121260   -1.1468731450   -2.4348241469
O        0.2671224405   -3.2804552052   -1.8340454630
F        1.6466739033    2.7663883684   -1.5469515617
H        2.0964921772   -0.1918501386    0.9475343020
H        0.4229684976   -0.1286010852    0.4307894892
H        1.0241975448   -2.5246106325    0.5465635104
H        2.5141696920   -2.2429933974   -0.3518878284
H        4.2137005056    2.8178033131   -1.7482344986
H        4.5213890856    1.0628081574   -1.3080545404
H        3.4548043590    1.4927689075    0.9887178619
H        3.1327385679    3.2249603353    0.4933583125
H        0.4898049204   -1.3479229949   -3.3843117222
20   
torsion grid (-105,)
C        1.7600297392    0.4262147997   -1.0785236934
C        0.8367825704   -2.2168494581   -1.5308713075
C        1.3042465655   -0.3702102253    0.1194527367
C        1.4024010073   -1.8716333831   -0.1679133638
C        3.8448787675    2.0047337589   -1.3010343186
C        3.3945271662    2.0883651480    0.1555935530
C        2.4144290884    1.7658965130   -0.9302137223
N        1.5731701281    0.0191934172   -2.2854949492
N        0.9138589394   -1.1819885990   -2.4502059394
O        0.3830849540   -3.3100735304   -1.8423514070
F        1.5429188981    2.8012164540   -1.2720617181
H        1.8741162364   -0.1010554993    1.0111966043
H        0.2590080645   -0.0971906581    0.3264009288
H        0.8846637886   -2.4737806172    0.5806406764
H        2.4520912882   -2.1924647629   -0.1748860190
H        4.0592722272    2.9393901705   -1.8095716738
H        4.4378837036    1.1534940794   -1.6189880438
H        3.6991156350    1.3003855982    0.8384394831
H        3.3191096475    3.0767173838    0.5976401034
H        0.7323943184   -1.4226611668   -3.4186646774
20   
torsion grid (-90,)
C        1.7574398067    0.4309617848   -1.0622180465
C        0.8876042155   -2.2268525241   -1.5184530446
C        1.1937032210   -0.3292367727    0.1133434130
C        1.3174743818   -1.8385533983   -0.1179731996
C        3.7720240716    2.0761418235   -1.3951436376
C        3.5194307910    1.9864136448    0.1103461078
C        2.4100600541    1.7623979196   -0.8696823016
N        1.6929369384   -0.0121521608   -2.2690609243
N        1.0596702329   -1.2233123564   -2.4600563572
O        0.4645079105   -3.3296805201   -1.8385923703
F        1.4791772382    2.8006244161   -0.9758505651
H        1.6888260570   -0.0276989391    1.0393548134
H        0.1348148731   -0.0535636527    0.2217470535
H        0.7291823882   -2.4191544181    0.5945652578
H        2.3624603239   -2.1580090557   -0.0137252271
H        3.9097973055    3.0676488135   -1.8144230003
H        4.3245041765    1.2807194315   -1.8836811187
H        3.9118242206    1.1302199911    0.6525646624
H        3.4971959683    2.9170613883    0.6687339379
H        0.9753485589   -1.4962759928   -3.4332122005
20   
torsion grid (-75,)
C        1.7533807113    0.4362873416   -1.0504954829
C        0.9437919772   -2.2405840793   -1.4936970158
C        1.0818706610   -0.2857585613    0.0925518016
C        1.2379227874   -1.8006890801   -0.0734176977
C        3.6923654983    2.1526254219   -1.4674700538
C        3.6431052068    1.8859865441    0.0378100701
C        2.4152096946    1.7511719883   -0.8110037083
N        1.8010891306   -0.0441755412   -2.2433569289
N        1.1905234163   -1.2661245025   -2.4493209925
O        0.5628830174   -3.3587380877   -1.8138836159
F        1.4645864671    2.7672810338   -0.6665617275
H        1.4875847110    0.0545801525    1.0483651541
H        0.0160378194   -0.0177005523    0.0900713747
H        0.5892377940   -2.3624590411    0.6007501470
H        2.2704593435   -2.1064265928    0.1394862589
H        3.7662602468    3.1888559115   -1.7811961143
H        4.1783944216    1.4307468757   -2.1143325410
H        4.1059636409    0.9805428052    0.4210551721
H        3.6867008663    2.7462674470    0.6988208869
H        1.2006153224   -1.5739900610   -3.4155917342
20   
torsion grid (-60,)
C        1.7628240115    0.4329938271   -1.0354457909
C        0.9909842453   -2.2547936326   -1.4671314628
C        0.9823053906   -0.2493675584    0.0621129980
C        1.1502756115   -1.7687721335   -0.0400839870
C        3.6086701414    2.2366484806   -1.5118420186
C        3.7611317302    1.8053663793   -0.0541457369
C        2.4313447281    1.7311356278   -0.7498603687
N        1.9151050059   -0.0804616483   -2.2052072898
N        1.3230666431   -1.3107279045   -2.4263869367
O        0.6406105148   -3.3839815448   -1.7846173952
F        1.4957097057    2.6947875321   -0.3622615148
H        1.2969780437    0.1229198844    1.0400084423
H       -0.0768737039    0.0189564823   -0.0510623823
H        0.4378180082   -2.3085187690    0.5860688447
H        2.1563294765   -2.0672555589    0.2814927623
H        3.6243076071    3.3025687062   -1.7143236452
H        4.0127346799    1.6020745579   -2.2923821086
H        4.2800923463    0.8754750513    0.1605750279
H        3.8754159812    2.5872216700    0.6907620972
H        1.4191525667   -1.6485700266   -3.3776862823
20   
torsion grid (-45,)
C        1.7868987226    0.4213989861   -1.0101982288
C        1.0279187245   -2.2695887031   -1.4405829931
C        0.8948886324   -0.2211674044    0.0246029893
C        1.0591484276   -1.7438336156   -0.0188741577
C        3.5223998804    2.3206943506   -1.5308291129
C        3.8707633232    1.7495501550   -0.1603290114
C        2.4586065015    1.7065395846   -0.6842774856
N        2.0356100080   -0.1221074363   -2.1493599031
N        1.4510608321   -1.3542665508   -2.3903055295
O        0.6967014342   -3.4052063243   -1.7574016008
F        1.5683020895    2.5933102076   -0.0762233390
H        1.1114194856    0.1782062077    1.0179137571
H       -0.1442989490    0.0513662989   -0.2037597584
H        0.2867581103   -2.2607738195    0.5531634557
H        2.0281462430   -2.0381910568    0.4040887427
H        3.4906510223    3.4016103694   -1.6202602772
H        3.8274470759    1.7780308672   -2.4182830071
H        4.4222545691    0.8153883487   -0.1123563195
H        4.0664232760    2.4544983044    0.6422403438
H        1.6268833245   -1.7177593470   -3.3203853121
20   
torsion grid (-30,)
C        1.8356252961    0.3933474703   -0.9626897210
C        1.0457895642   -2.2854107184   -1.4208015224
C        0.8328474741   -0.2058372805   -0.0064545155
C        0.9545817644   -1.7331242404   -0.0118843649
C        3.4292745952    2.3978704637   -1.5369430591
C        3.9705097139    1.7393895269   -0.2762588220
C        2.5004078137    1.6775851581   -0.6142364185
N        2.1707659107   -0.1765222282   -2.0663499572
N        1.5834064217   -1.4014427224   -2.3396244117
O        0.7127402118   -3.4179271607   -1.7485067492
F        1.6756529530    2.4764571700    0.1752516961
H        0.9638599755    0.2036231200    0.9970107774
H       -0.1706891512    0.0937213392   -0.3379765513
H        0.1146274829   -2.2163847875    0.4901383553
H        1.8679493508   -2.0470056159    0.5093626086
H        3.3517219659    3.4802431517   -1.5351865220
H        3.6280370062    1.9321627501   -2.4957384969
H        4.5437936674    0.8229804937   -0.3752369824
H        4.2463143652    2.3877866242    0.5500742386
H        1.8307663523   -1.7838130916   -3.2453663296
20   
torsion grid (-15,)
C        1.8969197566    0.3563788043   -0.9017734065
C        1.0537213880   -2.3002026992   -1.4054996168
C        0.7849467817   -0.1919586561   -0.0409625375
C        0.8484460727   -1.7227812044   -0.0189709715
C        3.3273131636    2.4643924105   -1.5246081824
C        4.0566557247    1.7506153073   -0.3995530409
C        2.5575088401    1.6415038181   -0.5366005130
N        2.3156053249   -0.2440981531   -1.9599567797
N        1.7109261903   -1.4507043801   -2.2763921370
O        0.7092400764   -3.4243974373   -1.7508771370
F        1.8200683020    2.3525235372    0.4054815858
H        0.8307048170    0.2249600254    0.9662140259
H       -0.1687408480    0.1398034245   -0.4745052711
H       -0.0538373680   -2.1665274391    0.4053715687
H        1.6947190222   -2.0614657859    0.5921738669
H        3.2103953744    3.5399458080   -1.4384914378
H        3.4077652684    2.0654667106   -2.5300592003
H        4.6352027117    0.8642327591   -0.6392296984
H        4.4201643533    2.3543737464    0.4265072143
H        2.0302577817   -1.8543611738   -3.1496850791
20   
torsion grid (0,)
C        1.9685247768    0.3109829840   -0.8374837348
C        1.0539945391   -2.3128539620   -1.3921882190
C        0.7552657086   -0.1739910252   -0.0824929662
C        0.7475798438   -1.7056135701   -0.0376912905
C        3.2182122804    2.5186138774   -1.4922780038
C        4.1209908943    1.7745627752   -0.5254928170
C        2.6280146512    1.5955899824   -0.4613939110
N        2.4623915007   -0.3289427450   -1.8387901164
N        1.8282759311   -1.5063838028   -2.2060141973
O        0.6908924855   -3.4250110207   -1.7569640426
F        1.9929012168    2.2174495582    0.6084122415
H        0.7224536454    0.2545340788    0.9198441735
H       -0.1360939864    0.1922611374   -0.6113981009
H       -0.2085803546   -2.1029519669    0.3071833237
H        1.5188687988   -2.0696854858    0.6529032560
H        3.0694958578    3.5803988982   -1.3224142788
H        3.1758473867    2.1820935674   -2.5229206410
H        4.6934739446    0.9314517109   -0.8982794694
H        4.5691031851    2.3452248146    0.2820744492
H        2.2163704280   -1.9400303836   -3.0360324030
20   
torsion grid (15,)
C        2.0460583998    0.2603803876   -0.7799657097
C        1.0526225006   -2.3248603953   -1.3792312348
C        0.7464755126   -0.1501258041   -0.1331305733
C        0.6563429446   -1.6782206500   -0.0671287412
C        3.1038953875    2.5605299337   -1.4364521503
C        4.1602553475    1.8060965782   -0.6487740533
C        2.7057287593    1.5419921501   -0.3968117933
N        2.5995998016   -0.4257074813   -1.7177040374
N        1.9383465827   -1.5727874696   -2.1298555947
O        0.6682984190   -3.4241659846   -1.7603856621
F        2.1882182934    2.0687186172    0.7825522923
H        0.6448859048    0.2981089662    0.8557884978
H       -0.0730463788    0.2491007716   -0.7481131089
H       -0.3459845315   -2.0212966667    0.1949224005
H        1.3427927643   -2.0664299042    0.6960012177
H        2.9324103984    3.6013387102   -1.1792675603
H        2.9397752610    2.2873586761   -2.4738311035
H        4.7159029117    1.0197719520   -1.1485580079
H        4.6845759188    2.3507615105    0.1300188757
H        2.3808285365   -2.0428644751   -2.9114907007
20   
torsion grid (30,)
C        1.6030665198    0.4628430136   -0.8641557173
C        0.8631412340   -2.1939697361   -1.5077619376
C        1.2931463120   -0.4687192178    0.2809722078
C        1.4976437491   -1.9218670954   -0.1587409647
C        1.2697470706    3.0524860224   -0.8640499233
C        2.5322678146    2.7798372124   -1.6664724716
C        2.1167860872    1.8326375003   -0.5868685081
N        1.3568968038    0.1579109664   -2.0902577310
N        0.7714648870   -1.0774295607   -2.3217373905
O        0.4801630023   -3.2924922871   -1.8912064472
F        2.8590131317    1.8838551750    0.5908448769
H        1.9014269858   -0.2272217443    1.1536799081
H        0.2438886228   -0.3060419117    0.5672633670
H        1.0917994515   -2.6341667370    0.5616128526
H        2.5682253040   -2.1386480057   -0.2637145169
H        1.3067945751    3.8424023632   -0.1198553257
H        0.3081090662    2.8894697965   -1.3402803382
H        2.4357063209    2.4300369195   -2.6883564161
H        3.4002799934    3.3931523543   -1.4472514998
H        0.5446956206   -1.2472414334   -3.2952436625
20   
torsion grid (45,)
C        1.6650028410    0.4455986393   -0.9180401852
C        0.8902125705   -2.2134003130   -1.5018156385
C        1.2305854691   -0.4211133128    0.2371654973
C        1.4191950661   -1.8994711470   -0.1167201585
C        1.2922772922    3.0206157851   -0.7168076451
C        2.4307531273    2.8250813709   -1.7104763166
C        2.1892545411    1.8098417358   -0.6441556881
N        1.5048124386    0.0952990803   -2.1461385380
N        0.9069621528   -1.1334677491   -2.3705064436
O        0.5020862144   -3.3152676077   -1.8688582817
F        3.0981982088    1.8064305557    0.4150560497
H        1.7757803813   -0.1560251695    1.1449290094
H        0.1680805029   -0.2116842034    0.4280852415
H        0.9290982280   -2.5645281306    0.5963927420
H        2.4863102027   -2.1549705078   -0.1207701885
H        1.4259639280    3.7667981765    0.0607997843
H        0.2728212749    2.8727604311   -1.0598735746
H        2.1949024585    2.5395369891   -2.7293532900
H        3.3107089893    3.4464185998   -1.5799050874
H        0.7512566648   -1.3416196283   -3.3505869265
20   
torsion grid (60,)
C        1.7092663897    0.4320566661   -0.9668982956
C        0.9244284165   -2.2343179786   -1.4954852065
C        1.1586856653   -0.3716123758    0.1842084819
C        1.3390411170   -1.8687942500   -0.0842762386
C        1.3427412373    2.9864389987   -0.5704165991
C        2.3205576240    2.8629414992   -1.7362579028
C        2.2482003787    1.7919699845   -0.7021660282
N        1.6370743753    0.0333489631   -2.1883557957
N        1.0435959311   -1.1961862264   -2.4078871987
O        0.5429179008   -3.3430413065   -1.8471451983
F        3.3131643679    1.7433966968    0.2023580106
H        1.6345681764   -0.0753229924    1.1218021649
H        0.0900241160   -0.1301571790    0.2770202610
H        0.7723572890   -2.4903914593    0.6111115023
H        2.3957203340   -2.1469124078    0.0158476311
H        1.5871546141    3.6942407170    0.2160580162
H        0.2829750551    2.8479827828   -0.7636601411
H        1.9361513327    2.6332186734   -2.7235457523
H        3.2030211197    3.4936577218   -1.7064552564
H        0.9626171117   -1.4456829333   -3.3874360927
20   
torsion grid (75,)
C        1.7401032882    0.4219572237   -1.0098042250
C        0.9629974700   -2.2563577274   -1.4878344043
C        1.0802364947   -0.3232548862    0.1233265957
C        1.2558153835   -1.8336177607   -0.0621841912
C        1.4195543103    2.9504603395   -0.4307809107
C        2.2021830932    2.8962051010   -1.7430505438
C        2.2980860383    1.7794172447   -0.7608415533
N        1.7612854111   -0.0273685889   -2.2155368306
N        1.1830926785   -1.2624892179   -2.4312266458
O        0.5954672293   -3.3742222012   -1.8241606911
F        3.4979894571    1.7041197265   -0.0448708008
H        1.4808974257    0.0077326781    1.0848103330
H        0.0119136743   -0.0633129934    0.1173011130
H        0.6178286965   -2.4155900340    0.6052061330
H        2.2940408324   -2.1222831665    0.1443025665
H        1.7797268117    3.6266894763    0.3386295015
H        0.3425567089    2.8112544824   -0.4608941581
H        1.6676538097    2.7114847494   -2.6681947827
H        3.0723499901    3.5396228593   -1.8231015505
H        1.1804837489   -1.5536137105   -3.4026745928
20   
torsion grid (90,)
C        1.7602581382    0.4149690410   -1.0484103079
C        1.0048385245   -2.2790466827   -1.4758082385
C        0.9945062350   -0.2765424462    0.0524700382
C        1.1743591519   -1.7945397101   -0.0499452342
C        1.5203715406    2.9125637328   -0.3041370173
C        2.0806506591    2.9257142055   -1.7275855996
C        2.3409905961    1.7705590321   -0.8203229379
N        1.8782583859   -0.0867839580   -2.2276770743
N        1.3146387980   -1.3282018385   -2.4386399749
O        0.6600906982   -3.4092119139   -1.7940904792
F        3.6434275483    1.6864716673   -0.3165580828
H        1.3089766905    0.0947470091    1.0312029191
H       -0.0680276878   -0.0161739865   -0.0594518329
H        0.4755446497   -2.3437275674    0.5834629736
H        2.1882689560   -2.0776472571    0.2593765532
H        1.9949916714    3.5629760876    0.4240427351
H        0.4533225425    2.7620387992   -0.1650838424
H        1.4029060340    2.7745873946   -2.5608908955
H        2.9199077738    3.5861481205   -1.9206522237
H        1.3959816465   -1.6620661352   -3.3928811162
20   
torsion grid (105,)
C        1.7832069713    0.4082033368   -1.0872094896
C        1.0417536954   -2.2993630330   -1.4616924203
C        0.9178383331   -0.2298159568   -0.0274508291
C        1.0898243760   -1.7523221514   -0.0494204387
C        1.6315394373    2.8683827507   -0.1953899184
C        1.9574098237    2.9526751232   -1.6865882759
C        2.3771564140    1.7656575309   -0.8806342984
N        1.9975501099   -0.1479706545   -2.2278024581
N        1.4462678848   -1.3951113647   -2.4332077994
O        0.7153100766   -3.4409591712   -1.7581755040
F        3.7428277517    1.6965878911   -0.5969649150
H        1.1524269167    0.1785926323    0.9586753781
H       -0.1299757507    0.0300883292   -0.2379825933
H        0.3316981706   -2.2674316539    0.5430855305
H        2.0691965092   -2.0292448146    0.3605085330
H        2.2057510235    3.4992638581    0.4757419248
H        0.6021275811    2.6917797843    0.1040920239
H        1.1567426334    2.8216505541   -2.4071447896
H        2.7454078207    3.6375716090   -1.9833060434
H        1.6102027741   -1.7714010055   -3.3607132550
20   
torsion grid (120,)
C        1.8094717700    0.4009897489   -1.1243907721
C        1.0730419332   -2.3171969259   -1.4465073626
C        0.8518612627   -0.1849605096   -0.1137006309
C        1.0052409215   -1.7089934674   -0.0606354602
C        1.7488507578    2.8241423567   -0.1067332926
C        1.8347048938    2.9725685792   -1.6232578840
C        2.4027259378    1.7646859556   -0.9402456314
N        2.1194481210   -0.2099380558   -2.2135649907
N        1.5775323224   -1.4623437998   -2.4135207674
O        0.7568586567   -3.4678159396   -1.7198710352
F        3.7931867492    1.7312555929   -0.8753195716
H        1.0139441699    0.2546177304    0.8731379829
H       -0.1735786829    0.0760219616   -0.4143222267
H        0.1920577149   -2.1900355866    0.4856204680
H        1.9417512552   -1.9777758680    0.4440404238
H        2.4094429033    3.4427458157    0.4922635840
H        0.7809999975    2.6157430124    0.3400655755
H        0.9326027498    2.8474412716   -2.2137941268
H        2.5536634290    3.6850607480   -2.0153044637
H        1.8204556897   -1.8793790262   -3.3055394563
20   
torsion grid (135,)
C        1.8327043574    0.3948159047   -1.1628209510
C        1.1022502160   -2.3343556240   -1.4265233809
C        0.7874913315   -0.1417238509   -0.2118184630
C        0.9236743614   -1.6629498950   -0.0805963621
C        1.8784820117    2.7828206975   -0.0362427110
C        1.7182634530    2.9832926765   -1.5374738449
C        2.4175844315    1.7650681773   -0.9987835952
N        2.2359937464   -0.2711630135   -2.1869241044
N        1.6965141469   -1.5273557694   -2.3808696004
O        0.7976905164   -3.4946954794   -1.6726828096
F        3.7971237868    1.7776128512   -1.1458240014
H        0.8696723756    0.3315762697    0.7684171582
H       -0.2077537452    0.1103954480   -0.6064667595
H        0.0634549440   -2.1134155454    0.4174521833
H        1.8124446768   -1.9128453410    0.5124075399
H        2.6187733554    3.3936639084    0.4702207070
H        0.9976631350    2.5457268683    0.5520735279
H        0.7355604198    2.8520186571   -1.9799134936
H        2.3502016617    3.7236471757   -2.0179324862
H        2.0164733702   -1.9853005212   -3.2272781911
20   
torsion grid (150,)
C        1.8391756250    0.3943344498   -1.2207292894
C        1.1442005442   -2.3523643563   -1.3894757588
C        0.7094531901   -0.0977054711   -0.3440594000
C        0.8530222270   -1.6048434812   -0.1045527010
C        2.0210129305    2.7274742536    0.0242109121
C        1.6126042772    2.9946185785   -1.4152946581
C        2.4148684945    1.7661154511   -1.0644320713
N        2.3368822644   -0.3283632179   -2.1614264034
N        1.8000335508   -1.5913098971   -2.3397275308
O        0.8699320012   -3.5295373040   -1.5886344659
F        3.7516303273    1.8289675789   -1.4124140296
H        0.6798864963    0.4333932744    0.6082241849
H       -0.2431679844    0.1057533884   -0.8541506325
H       -0.0403472516   -2.0360858435    0.3501863098
H        1.6936907990   -1.8028885676    0.5722108586
H        2.8339181240    3.3234289096    0.4261879732
H        1.2565976433    2.4515899726    0.7425474427
H        0.5724714958    2.8576595657   -1.6952513311
H        2.1422198629    3.7707557434   -1.9587006443
H        2.1961779348   -2.0941594330   -3.1262984031
20   
torsion grid (165,)
C        1.8386198697    0.4003420652   -1.3014060101
C        1.1903524325   -2.3597162296   -1.3274371342
C        0.6331331709   -0.0491074786   -0.5063588813
C        0.7895833052   -1.5253332980   -0.1273092061
C        2.1643524114    2.6385968236    0.0675294665
C        1.5215674563    2.9966882772   -1.2601612685
C        2.3988162524    1.7727723560   -1.1459769700
N        2.4220763435   -0.3781149263   -2.1431692305
N        1.8919116627   -1.6518997474   -2.2861683914
O        0.9530495694   -3.5547754110   -1.4559332321
F        3.6626919177    1.9042675408   -1.6815248273
H        0.4747678699    0.5606967936    0.3840399031
H       -0.2586687287    0.0719592597   -1.1376708771
H       -0.1279959657   -1.9425035763    0.2909098387
H        1.5793266587   -1.6458899032    0.6247752018
H        3.0232957588    3.2265031808    0.3741064627
H        1.5423798331    2.2792590693    0.8799348766
H        0.4529822117    2.8462939404   -1.3805459105
H        1.9385651309    3.8294566821   -1.8173822870
H        2.3534553920   -2.2026618241   -3.0018311611
20   
torsion grid (180,)
C        1.8559795957    0.4015809170   -1.3438580154
C        1.2154926399   -2.3582013892   -1.2800129048
C        0.5912798583   -0.0120424691   -0.6257776316
C        0.7157501372   -1.4661568272   -0.1605277777
C        2.2886075645    2.5714285739    0.0740644523
C        1.4488390672    2.9761581619   -1.1229877233
C        2.3770420026    1.7880558178   -1.2145315576
N        2.5050838355   -0.4127770888   -2.0988299760
N        1.9919254557   -1.6971301468   -2.2131513321
O        0.9896511531   -3.5594861389   -1.3657041376
F        3.5346149114    2.0051985767   -1.9282335977
H        0.3590615287    0.6433612723    0.2160114384
H       -0.2434176688    0.0766705678   -1.3353229983
H       -0.2327721682   -1.8672080631    0.2005510785
H        1.4402414482   -1.5449716851    0.6597778640
H        3.1590018321    3.1792578370    0.2985623747
H        1.8068361757    2.1227950782    0.9366018518
H        0.3787634912    2.7954131785   -1.1019354038
H        1.7588139093    3.8546333083   -1.6794953763
H        2.5034677830   -2.2797458870   -2.8667802653
