18   
torsion grid (-165,)
C        1.4446368934    0.5520049117    1.4378314009
C        0.1820753926    0.0365129949    1.0134208785
C        1.5290633061    0.3536858977    2.8061390827
C       -0.4634649851   -0.4577652285    2.1362276445
C       -1.8141020991   -1.0839932000    2.3088127285
C       -2.8358434090   -0.0651694030    2.8396839720
N        0.3681040503   -0.2582512387    3.2143294525
N       -1.7147563610   -2.1897465873    3.2746431607
F       -3.9587719447   -0.7247140432    3.3046137823
F       -2.3421681034    0.6404668536    3.9085320882
H        2.2053749823    1.0055294980    0.8157812291
H       -0.2087322628    0.0223542076    0.0032776677
H        2.3176013038    0.5871397866    3.5084143646
H       -2.1834646713   -1.3847448938    1.3153224140
H       -3.1505455170    0.6530910516    2.0784205663
H        0.1233411931   -0.5381132846    4.1552086878
H       -1.1049767904   -2.9092067716    2.8921940891
H       -2.6303473497   -2.6054925615    3.4334605324
18   
torsion grid (-150,)
C        1.4472289807    0.5630510303    1.4696604662
C        0.1822178339    0.0665967441    1.0299562329
C        1.5296709648    0.3246780168    2.8315878822
C       -0.4670701240   -0.4548452016    2.1379895509
C       -1.8224329667   -1.0765508204    2.2917815734
C       -2.8637008953   -0.0624133518    2.8281697766
N        0.3646249965   -0.2918890927    3.2212320942
N       -1.7132688153   -2.1886504186    3.2527686938
F       -3.8318483456   -0.7082990853    3.5706014210
F       -2.2928526178    0.8494643876    3.6811138619
H        2.2112049253    1.0296558261    0.8613562794
H       -0.2085585896    0.0851950417    0.0198591374
H        2.3196834308    0.5315392873    3.5405193675
H       -2.1788850974   -1.3807954972    1.2953855313
H       -3.3601526993    0.4955982832    2.0302913871
H        0.1177659126   -0.5993576809    4.1528360600
H       -1.1059027259   -2.9037592971    2.8582491995
H       -2.6244870259   -2.6071790040    3.4254304402
18   
torsion grid (-135,)
C        1.4552081853    0.5679188734    1.5003370668
C        0.1899636497    0.0850978752    1.0460328289
C        1.5305400297    0.3055912848    2.8582051484
C       -0.4663067025   -0.4525480124    2.1414900220
C       -1.8257782087   -1.0673922911    2.2807983433
C       -2.8866587047   -0.0571573795    2.8210560978
N        0.3595600428   -0.3102872976    3.2320030495
N       -1.7205920606   -2.2022066679    3.2166124590
F       -3.6637612179   -0.6281303647    3.8067724608
F       -2.3014085587    1.0412082038    3.3966512309
H        2.2234354845    1.0430938637    0.9041043131
H       -0.1987112780    0.1287692537    0.0358982138
H        2.3192171846    0.4942136029    3.5736881938
H       -2.1707877195   -1.3551233583    1.2760331850
H       -3.5566894937    0.3039029184    2.0365616457
H        0.1181223172   -0.6569569316    4.1512410694
H       -1.1452781106   -2.9242786671    2.7881166305
H       -2.6355553604   -2.6009919148    3.4137870092
18   
torsion grid (-120,)
C        1.4840255939    0.5830346473    1.5312880114
C        0.2178285348    0.1104423104    1.0687532126
C        1.5593081481    0.2985282066    2.8846400284
C       -0.4398957114   -0.4423776078    2.1549682421
C       -1.7995443849   -1.0562799836    2.2875113051
C       -2.8772086110   -0.0597875476    2.8333293983
N        0.3848703694   -0.3172297962    3.2491673257
N       -1.7064711938   -2.2196210373    3.1881173252
F       -3.4301279803   -0.5058201444    4.0146793122
F       -2.3478479809    1.1748734238    3.0911664213
H        2.2524472436    1.0679489149    0.9431444734
H       -0.1730361861    0.1770649472    0.0607608783
H        2.3493120985    0.4722277911    3.6024450420
H       -2.1371496831   -1.3156334769    1.2726297401
H       -3.7016908546    0.0817571107    2.1289265863
H        0.1534201647   -0.7011449343    4.1562575910
H       -1.1754268437   -2.9507871936    2.7197124552
H       -2.6274616535   -2.5909463893    3.4104393653
18   
torsion grid (-105,)
C        1.4911989427    0.5892623701    1.5621860017
C        0.2237407937    0.1276612495    1.0925171442
C        1.5675305213    0.2819577686    2.9105776404
C       -0.4340465929   -0.4429542416    2.1689383204
C       -1.7943659626   -1.0548352931    2.2950145318
C       -2.8743971268   -0.0749041874    2.8480799178
N        0.3917888330   -0.3370495512    3.2656419921
N       -1.7247369568   -2.2455304766    3.1587145643
F       -3.1890917570   -0.3497157887    4.1616554431
F       -2.4585614183    1.2237494573    2.7865720876
H        2.2591935471    1.0843682682    0.9820045432
H       -0.1698223687    0.2170632449    0.0874269225
H        2.3585332860    0.4424078412    3.6303712622
H       -2.1302328167   -1.2783896919    1.2702777513
H       -3.8116157279   -0.1436816465    2.2863949728
H        0.1650070978   -0.7448381192    4.1635443205
H       -1.2318178413   -2.9825825138    2.6588308135
H       -2.6535050080   -2.5922764634    3.3907688100
18   
torsion grid (-90,)
C        1.4875157048    0.5899551509    1.5856411535
C        0.2221700949    0.1405949525    1.0993837293
C        1.5510363329    0.2657494909    2.9308587046
C       -0.4479124670   -0.4400787872    2.1627225898
C       -1.8114176194   -1.0470990131    2.2711855805
C       -2.8808186087   -0.0795906753    2.8338405179
N        0.3693914385   -0.3513139066    3.2683703039
N       -1.7679949965   -2.2557012122    3.1096600992
F       -2.9627439448   -0.1546588440    4.2063584383
F       -2.6099206571    1.2134351299    2.4930569874
H        2.2623104410    1.0893227344    1.0183083110
H       -0.1633127528    0.2460538587    0.0928417739
H        2.3360497309    0.4152132170    3.6595269827
H       -2.1467987949   -1.2402112607    1.2392149431
H       -3.8813925596   -0.3164968240    2.4538072067
H        0.1308139865   -0.7634267120    4.1612062078
H       -1.2711937780   -2.9865548966    2.6042301633
H       -2.7052687567   -2.6029328326    3.3082509306
18   
torsion grid (-75,)
C        1.5021740856    0.5604016654    1.5832250007
C        0.2389860160    0.1183785133    1.0854272767
C        1.5338806715    0.2745064859    2.9381908109
C       -0.4612672959   -0.4213529700    2.1510629347
C       -1.8336385220   -1.0087030992    2.2427790122
C       -2.8587141328   -0.0477661996    2.8705374758
N        0.3380630828   -0.3176190999    3.2694245542
N       -1.8138402557   -2.2515264158    3.0303802543
F       -2.6915201969    0.0484315602    4.2324401342
F       -2.7404725960    1.2035871774    2.3345678880
H        2.2963495520    1.0298639969    1.0172493100
H       -0.1247844520    0.1979773480    0.0685634159
H        2.3050946639    0.4368917748    3.6787221805
H       -2.1879854449   -1.1437003358    1.2077894631
H       -3.8905928727   -0.3812714834    2.7055866885
H        0.0657186345   -0.6678576331    4.1785441978
H       -1.2288980666   -2.9318271997    2.5491082465
H       -2.7482220138   -2.6535649808    3.1021510468
18   
torsion grid (-60,)
C        1.5275471799    0.5185077163    1.5884488372
C        0.2644430178    0.0911872423    1.0786678012
C        1.5301293982    0.2609375256    2.9493559374
C       -0.4652113628   -0.4126472482    2.1426166368
C       -1.8430867763   -0.9901472534    2.2065179937
C       -2.8496172829   -0.0506331754    2.8842789206
N        0.3193832466   -0.3048473084    3.2715847732
N       -1.8361598923   -2.2575461445    2.9583130535
F       -2.4800251083    0.2341262337    4.1770857689
F       -2.9257848043    1.1336098727    2.1997016139
H        2.3403970571    0.9602345259    1.0267599732
H       -0.0795891456    0.1524047961    0.0537062538
H        2.2895325123    0.4286013411    3.7008496011
H       -2.2007711148   -1.0877926427    1.1694727468
H       -3.8594742245   -0.4758871721    2.9257899892
H        0.0146964680   -0.5953306622    4.1910071902
H       -1.1596313882   -2.8868017711    2.5306153291
H       -2.7462849474   -2.7143792362    2.9045949861
18   
torsion grid (-45,)
C        1.5343928664    0.5289332910    1.6006852009
C        0.2633373460    0.1368650616    1.0824906803
C        1.5437745138    0.2124990360    2.9489605135
C       -0.4646286857   -0.4042868933    2.1293570272
C       -1.8478738938   -0.9715940411    2.1731140726
C       -2.8586610871   -0.0409681638    2.8607937152
N        0.3300693053   -0.3561611137    3.2550865283
N       -1.8437998158   -2.2376732899    2.9329931131
F       -2.3560242439    0.4844168814    4.0247068945
F       -3.1552999904    1.0150473241    2.0335237111
H        2.3486362433    0.9843094798    1.0520817040
H       -0.0859989591    0.2418957565    0.0629289675
H        2.3097394444    0.3400065947    3.7016770850
H       -2.2007117172   -1.0732931242    1.1363019752
H       -3.7993688935   -0.5456305231    3.1078206571
H        0.0220258619   -0.6628795886    4.1678794680
H       -1.1338058687   -2.8538015299    2.5417677705
H       -2.7391334122   -2.7162717461    2.8391356260
18   
torsion grid (-30,)
C        1.5430042598    0.5258538358    1.6285061463
C        0.2661289910    0.1623792681    1.1032161798
C        1.5524354008    0.1703965537    2.9667780218
C       -0.4648623829   -0.4008562203    2.1361394451
C       -1.8528775355   -0.9574547019    2.1650612640
C       -2.8723773387   -0.0358704422    2.8659063619
N        0.3330826570   -0.3936577826    3.2601418316
N       -1.8484965903   -2.2301254283    2.9198467699
F       -2.2931113396    0.7224544739    3.8492980217
F       -3.4059306956    0.8437531711    1.9495658996
H        2.3607777259    0.9879507981    1.0908849041
H       -0.0846559160    0.2997506826    0.0880005233
H        2.3216884216    0.2674759328    3.7206758532
H       -2.2012225953   -1.0552932730    1.1277763852
H       -3.7015932713   -0.5891206189    3.3186194828
H        0.0274677509   -0.7279481912    4.1639392998
H       -1.1330999022   -2.8413140914    2.5300016920
H       -2.7406319128   -2.7122338206    2.8131592319
18   
torsion grid (-15,)
C        1.5282250586    0.5504894736    1.6413073122
C        0.2488564228    0.2053321957    1.1088885128
C        1.5472825021    0.1405416730    2.9635366198
C       -0.4742176556   -0.4010511031    2.1221949965
C       -1.8670737275   -0.9453631774    2.1453458323
C       -2.8936106563   -0.0099624057    2.8344815938
N        0.3290868868   -0.4349440278    3.2417453934
N       -1.8736655675   -2.2160398463    2.9049772874
F       -2.2934899017    0.9727853943    3.5734675620
F       -3.6564997330    0.6255966184    1.8765302484
H        2.3418439930    1.0356226141    1.1178189451
H       -0.1088789628    0.3852844963    0.1027783301
H        2.3229146534    0.2039866682    3.7144692317
H       -2.2065760442   -1.0486029062    1.1062454553
H       -3.5761787620   -0.5518068366    3.4964194907
H        0.0367226707   -0.8260081589    4.1270705157
H       -1.1844408038   -2.8451709370    2.4959889404
H       -2.7793207616   -2.6769381711    2.8177197253
18   
torsion grid (0,)
C        1.5491406128    0.5584404050    1.6799027807
C        0.2694871215    0.2289695438    1.1379320781
C        1.5688406175    0.1109065673    2.9897443013
C       -0.4533286995   -0.4055285555    2.1334676509
C       -1.8500448371   -0.9387838909    2.1482398153
C       -2.8780435394    0.0032017213    2.8341391211
N        0.3484355306   -0.4678817508    3.2532522263
N       -1.8794914625   -2.2198023772    2.8876109316
F       -2.3089705331    1.1558543541    3.3012753985
F       -3.8509406915    0.3705206015    1.9271417066
H        2.3621434819    1.0593718984    1.1705062119
H       -0.0896056857    0.4413479913    0.1386356513
H        2.3461491648    0.1493958482    3.7406202503
H       -2.1801695161   -1.0250925157    1.1043192531
H       -3.3786671810   -0.4799128012    3.6788385721
H        0.0678198072   -0.9140898120    4.1161591112
H       -1.2273534374   -2.8662190301    2.4457409254
H       -2.8038715135   -2.6458733749    2.8185407509
18   
torsion grid (15,)
C        1.5632102658    0.5756230198    1.7125868867
C        0.2821711702    0.2611141670    1.1648843038
C        1.5881029054    0.0910870394    3.0090709846
C       -0.4372803088   -0.4010616408    2.1440925484
C       -1.8351025738   -0.9302453666    2.1546296532
C       -2.8597560180    0.0157318509    2.8315891534
N        0.3671256022   -0.4924913302    3.2609953616
N       -1.8859685233   -2.2153479350    2.8811201468
F       -2.3774677828    1.2830857081    3.0016593344
F       -3.9956800353    0.1026220808    2.0529100746
H        2.3738087447    1.0923229749    1.2152200655
H       -0.0809460466    0.5051087904    0.1743552571
H        2.3689847205    0.1062304997    3.7570689931
H       -2.1581188368   -1.0047982589    1.1064505613
H       -3.1628307061   -0.3530777959    3.8166031085
H        0.0982666568   -0.9875360114    4.1009026705
H       -1.2725030584   -2.8795057209    2.4109668885
H       -2.8273113066   -2.6061579671    2.8340075314
18   
torsion grid (30,)
C        1.5708881711    0.5879066012    1.7375520566
C        0.2880206123    0.2968842066    1.1813855390
C        1.5955036903    0.0623756563    3.0180598580
C       -0.4329088748   -0.3941889121    2.1390983722
C       -1.8325614370   -0.9195440271    2.1401236769
C       -2.8439747944    0.0312934018    2.8112780237
N        0.3719373686   -0.5230810778    3.2530204258
N       -1.9030795018   -2.2030988190    2.8642147193
F       -2.4874176478    1.3437503756    2.6883094537
F       -4.0829721886   -0.1297003945    2.2219169247
H        2.3827121068    1.1176607054    1.2561465667
H       -0.0757588916    0.5765638900    0.2006876120
H        2.3776897407    0.0496448614    3.7647401538
H       -2.1524508409   -0.9880222859    1.0895111607
H       -2.9584921687   -0.1828753511    3.8785857052
H        0.1048425372   -1.0552507181    4.0707041851
H       -1.3156181293   -2.8821222549    2.3824066031
H       -2.8555688865   -2.5671852635    2.8304801819
18   
torsion grid (45,)
C        1.5796571045    0.5979607342    1.7903599243
C        0.2999401258    0.3271547252    1.2172117504
C        1.5983508531    0.0269066745    3.0514349497
C       -0.4262590582   -0.3966967300    2.1464537670
C       -1.8267282831   -0.9233372061    2.1276618835
C       -2.8237385090    0.0323175140    2.7958918853
N        0.3728187927   -0.5642790012    3.2600285229
N       -1.9057372033   -2.2018922750    2.8562884918
F       -2.6272207726    1.3254439467    2.4025896685
F       -4.1085505858   -0.3283020120    2.4327596403
H        2.3937741627    1.1444050866    1.3320218698
H       -0.0590144876    0.6420578399    0.2455506517
H        2.3771340892   -0.0132895103    3.8006920381
H       -2.1438751075   -0.9901174806    1.0755098261
H       -2.7689688057   -0.0040856125    3.8880903526
H        0.1001102857   -1.1268680419    4.0553822401
H       -1.3235432221   -2.8883001421    2.3790958503
H       -2.8616766364   -2.5558052750    2.8272270110
18   
torsion grid (60,)
C        1.5797662710    0.6042742817    1.8148512081
C        0.3014157611    0.3525492909    1.2296903859
C        1.5904963727    0.0010186135    3.0608899586
C       -0.4308438118   -0.3942406976    2.1359971845
C       -1.8348469820   -0.9157993356    2.1031287482
C       -2.8045489096    0.0502427605    2.7880409127
N        0.3621442457   -0.5913884167    3.2491688883
N       -1.9120724570   -2.1935207938    2.8317178502
F       -2.7955547101    1.2682229561    2.1663848664
F       -4.0917982558   -0.4492912434    2.6898722816
H        2.3973680999    1.1603633093    1.3746648508
H       -0.0527031725    0.6938963410    0.2652612847
H        2.3654174090   -0.0605897152    3.8126938251
H       -2.1596525995   -0.9741165644    1.0530467254
H       -2.5874383419    0.1978538224    3.8494886285
H        0.0842311598   -1.1779809050    4.0253845105
H       -1.3309834417   -2.8806671891    2.3547315791
H       -2.8687815199   -2.5438572197    2.8126793444
18   
torsion grid (75,)
C        1.5623010914    0.5893742990    1.8543722760
C        0.2859900885    0.3542909028    1.2572471562
C        1.5710295336   -0.0570265526    3.0786092790
C       -0.4457139493   -0.4272025608    2.1350249769
C       -1.8551214822   -0.9397486514    2.0899916843
C       -2.8037674419    0.0505432596    2.7758019066
N        0.3441365831   -0.6597625292    3.2425390226
N       -1.9282760302   -2.2120127543    2.8303052422
F       -3.0100830830    1.1335529222    1.9634217786
F       -4.0435185044   -0.5394660956    2.9645119572
H        2.3799065662    1.1620605959    1.4359631559
H       -0.0662904711    0.7265663112    0.3036325253
H        2.3443010110   -0.1435936073    3.8296480194
H       -2.1833265313   -1.0047638157    1.0423642640
H       -2.4511834949    0.3984827046    3.7496098495
H        0.0591272700   -1.2694755201    3.9984406218
H       -1.3728978675   -2.9100675335    2.3388291681
H       -2.8901459670   -2.5458718434    2.8499248547
18   
torsion grid (90,)
C        1.5774134125    0.5979152287    1.8895020632
C        0.3081742811    0.3713437513    1.2729734507
C        1.5706780909   -0.0660733034    3.1041016690
C       -0.4336240533   -0.4232591809    2.1306232924
C       -1.8477485380   -0.9237093329    2.0685548107
C       -2.7903861841    0.0776285773    2.7672942515
N        0.3410901963   -0.6699370920    3.2446432982
N       -1.9183250896   -2.2089101519    2.7862682204
F       -3.2369058958    0.9933180537    1.8472134188
F       -3.9206437980   -0.5644539528    3.2420551395
H        2.4005859826    1.1756198634    1.4892771679
H       -0.0314078038    0.7552758097    0.3192416180
H        2.3353106841   -0.1655316395    3.8623612696
H       -2.1730517706   -0.9710687784    1.0198911483
H       -2.3364586252    0.6109647453    3.6049350489
H        0.0465531995   -1.2953356184    3.9841680976
H       -1.3879639041   -2.9040403015    2.2643234486
H       -2.8829507821   -2.5294445972    2.8373020971
18   
torsion grid (105,)
C        1.5853734823    0.5928220645    1.9256479312
C        0.3191037951    0.3781834747    1.2977587896
C        1.5694024254   -0.0891304338    3.1301184718
C       -0.4288580612   -0.4284549787    2.1389716274
C       -1.8460326228   -0.9183642575    2.0656910778
C       -2.7979335830    0.0899621463    2.7649306839
N        0.3377535028   -0.6927881502    3.2533912838
N       -1.9231196900   -2.2212594460    2.7498719744
F       -3.4898946653    0.7928423589    1.8058588117
F       -3.7525974634   -0.5569363859    3.5236766293
H        2.4127991043    1.1734718863    1.5386469028
H       -0.0121576680    0.7747544922    0.3461101313
H        2.3293847657   -0.2023737692    3.8911106115
H       -2.1616812626   -0.9444704989    1.0138827501
H       -2.2888554750    0.8046390446    3.4140153505
H        0.0366394110   -1.3319732116    3.9786129617
H       -1.4319593276   -2.9126333931    2.1863531752
H       -2.8918883381   -2.5209222036    2.8348543537
18   
torsion grid (120,)
C        1.3400268370    0.5893264843    1.3158286387
C        0.0706366092    0.0240469060    0.9793388530
C        1.5358722543    0.3859531146    2.6711215473
C       -0.4670598204   -0.5061334686    2.1404319469
C       -1.7931675089   -1.1441797328    2.4342384101
C       -2.8434126647   -0.0707991394    2.8439392794
N        0.4275853331   -0.2682540038    3.1605116530
N       -1.6228932187   -2.1280395510    3.5167464310
F       -3.8971547406   -0.1011133888    1.9551927624
F       -3.3763816758   -0.3178081125    4.0884518317
H        2.0317130070    1.0804169236    0.6435338979
H       -0.3983577783    0.0111832745    0.0031996650
H        2.3688743492    0.6384292723    3.3128785552
H       -2.1804702991   -1.5744851957    1.5005592973
H       -2.4435995965    0.9447134619    2.8495627433
H        0.2917431898   -0.6348469747    4.0946284824
H       -1.1355839692   -2.9401424777    3.1432004383
H       -2.5275068194   -2.4413997819    3.8623652737
18   
torsion grid (135,)
C        1.3543608649    0.5924314088    1.3476612308
C        0.0856932370    0.0343195614    0.9977105577
C        1.5395385206    0.3786260796    2.7031297640
C       -0.4628463084   -0.5012414142    2.1514513456
C       -1.7916157679   -1.1395449482    2.4281700434
C       -2.8480360027   -0.0814414088    2.8382828074
N        0.4257379696   -0.2748783661    3.1791501665
N       -1.6474079929   -2.1566521913    3.4809286709
F       -4.0309732243   -0.3219616580    2.1650546489
F       -3.1348917236   -0.1271456557    4.1792340040
H        2.0533541825    1.0844428062    0.6836658534
H       -0.3735458475    0.0264081329    0.0167793842
H        2.3682063130    0.6248384313    3.3528672952
H       -2.1693182939   -1.5378523590    1.4755303393
H       -2.5381583149    0.9365440562    2.5941835333
H        0.2781704323   -0.6390575893    4.1123954236
H       -1.1817461849   -2.9714747163    3.0864712027
H       -2.5601799449   -2.4575878316    3.8175672709
18   
torsion grid (150,)
C        1.3652450529    0.5697245154    1.3739062799
C        0.0999451759    0.0185707325    1.0028882376
C        1.5133546581    0.3820091651    2.7379453924
C       -0.4844311632   -0.4862921661    2.1530866464
C       -1.8222371303   -1.1136599793    2.4040870763
C       -2.8600337598   -0.0592637227    2.8323578105
N        0.3817341085   -0.2506416973    3.1980533278
N       -1.7136219559   -2.1650898470    3.4251479593
F       -4.1209172853   -0.4526130848    2.4184462893
F       -2.9092896471    0.0988966450    4.1923099774
H        2.0869899751    1.0393817687    0.7181749523
H       -0.3329556881   -0.0069127763    0.0103238861
H        2.3274687144    0.6340866125    3.4036304700
H       -2.1984751925   -1.4710334981    1.4331794726
H       -2.6628175101    0.9166529865    2.3830834215
H        0.2011495776   -0.5771060807    4.1392298601
H       -1.2152050548   -2.9581890884    3.0262046298
H       -2.6394324167   -2.4939767677    3.6959084994
18   
torsion grid (165,)
C        1.4124072054    0.5567121223    1.3845330034
C        0.1527801757    0.0036988681    0.9985749393
C        1.5289450832    0.3988917587    2.7555348803
C       -0.4592666110   -0.4736457362    2.1464310388
C       -1.7989757376   -1.1028002713    2.3759876364
C       -2.8117376873   -0.0645574939    2.8705324561
N        0.3863801636   -0.2209558291    3.2042411336
N       -1.7006426793   -2.1993150683    3.3488911594
F       -4.0934803980   -0.5749759231    2.7523922644
F       -2.6212652649    0.2561288626    4.1889866437
H        2.1502548712    1.0095654586    0.7350021577
H       -0.2585322034   -0.0425945495   -0.0023701101
H        2.3274806090    0.6661771799    3.4340397038
H       -2.1877663297   -1.4087228823    1.3914508020
H       -2.7712228669    0.8580087604    2.2862230037
H        0.1812683533   -0.5129439492    4.1514415633
H       -1.1469544310   -2.9506091984    2.9422397014
H       -2.6271356170   -2.5763132597    3.5451725227
18   
torsion grid (180,)
C        1.4255826169    0.5489355363    1.4177819972
C        0.1658598446    0.0105804070    1.0132677797
C        1.5232105561    0.3805773853    2.7891719376
C       -0.4650846318   -0.4682599483    2.1507305627
C       -1.8097495362   -1.0975720220    2.3519970749
C       -2.8191948894   -0.0700683356    2.8715946213
N        0.3718939863   -0.2353677187    3.2190145546
N       -1.7159177093   -2.2014663535    3.3168612471
F       -4.0501395651   -0.6798138416    3.0475712486
F       -2.4522972331    0.4360823158    4.0918758743
H        2.1763201167    0.9976444487    0.7802797081
H       -0.2320032834   -0.0291503619    0.0065892325
H        2.3149956060    0.6367787921    3.4797627666
H       -2.1926678633   -1.3938348320    1.3618129762
H       -2.9538704981    0.7674235972    2.1824686588
H        0.1395517718   -0.5020054148    4.1670746960
H       -1.1262048670   -2.9337258903    2.9272586902
H       -2.6381718701   -2.6013665012    3.4821839449
