18   
torsion grid (-165,)
C        5.7705681886    1.4908120829    0.5058902121
C        4.8763931450    1.2657076382    1.5575148069
C        5.5869769976    0.8301126600   -0.7131575377
C        3.8047875596    0.3845722883    1.3885962182
C        4.5151105331   -0.0514354693   -0.8785078527
C        3.6147799043   -0.2820719855    0.1708819367
C        2.4448943261   -1.2227641984   -0.0138710312
C        1.2212974356   -0.5562114088   -0.6260286952
F        0.1177013045   -1.3348634689   -0.4681619408
F        1.3717911322   -0.3323754442   -1.9557205628
F        0.9387333471    0.6362984532   -0.0493008478
H        6.6054194877    2.1744465277    0.6361622641
H        5.0130747819    1.7746108477    2.5080859328
H        6.2786498559    0.9995585315   -1.5342153459
H        3.1096264657    0.2169273339    2.2079815036
H        4.3754670279   -0.5608072070   -1.8291303406
H        2.1238494127   -1.6288572666    0.9489286922
H        2.7007905556   -2.0669686253   -0.6594713667
18   
torsion grid (-150,)
C        5.7625999758    1.4928845526    0.5313200294
C        4.8743730904    1.2377017333    1.5811630009
C        5.5790440438    0.8591808987   -0.7019535650
C        3.8074338796    0.3539672026    1.3969661612
C        4.5117179939   -0.0251658213   -0.8811545590
C        3.6162603570   -0.2856122075    0.1653225491
C        2.4506435402   -1.2278195924   -0.0374251586
C        1.2160335458   -0.5636896988   -0.6465213896
F        0.0766756294   -1.1753794272   -0.2253930368
F        1.2272165314   -0.6146037168   -2.0028366919
F        1.0975153505    0.7399316873   -0.3001215481
H        6.5933516437    2.1789713527    0.6740951048
H        5.0121123567    1.7255856007    2.5425464978
H        6.2662294423    1.0515207173   -1.5217738923
H        3.1171225572    0.1630973272    2.2155254116
H        4.3719824700   -0.5150115921   -1.8421941278
H        2.1335838074   -1.6437814504    0.9219943077
H        2.7142838124   -2.0660088037   -0.6871605219
18   
torsion grid (-135,)
C        5.7684986030    1.5019254817    0.5624031526
C        4.8817010411    1.2168454148    1.6055248962
C        5.5887312465    0.8949712172   -0.6849907207
C        3.8199169371    0.3308718824    1.4016125382
C        4.5269206043    0.0087445740   -0.8845840348
C        3.6330192722   -0.2809002919    0.1554819961
C        2.4735087953   -1.2254033110   -0.0697239183
C        1.2242485087   -0.5632578161   -0.6692922289
F        0.0970888467   -0.9661037101   -0.0234157900
F        1.0670617153   -0.8790638910   -1.9817068046
F        1.2468165674    0.7868502428   -0.5912384898
H        6.5950212772    2.1896588273    0.7209446503
H        5.0168053807    1.6830911626    2.5779520146
H        6.2749618241    1.1099675200   -1.4999636842
H        3.1318632911    0.1157549325    2.2162474633
H        4.3909865096   -0.4605704544   -1.8565439321
H        2.1635430429   -1.6710335529    0.8780812671
H        2.7513086803   -2.0428299158   -0.7389106452
18   
torsion grid (-120,)
C        5.7273530534    1.5297133126    0.5801668590
C        4.8256035259    1.2272035877    1.6056071991
C        5.5824676140    0.9225062549   -0.6714898172
C        3.7843232714    0.3230724453    1.3783575387
C        4.5400385951    0.0188552614   -0.8948922270
C        3.6319082858   -0.2886214213    0.1269782996
C        2.4931528324   -1.2518883923   -0.1228557181
C        1.2032137199   -0.5949192771   -0.6446171877
F        0.1604890815   -0.8096895259    0.2024814152
F        0.8376240818   -1.1110201646   -1.8493834871
F        1.3047969374    0.7421138131   -0.8077510334
H        6.5386889714    2.2311932481    0.7559719905
H        4.9336908394    1.6933914541    2.5814523790
H        6.2809624238    1.1510639831   -1.4722094243
H        3.0851573432    0.0922761916    2.1792309723
H        4.4313603230   -0.4496117289   -1.8707084079
H        2.2271548216   -1.7799356035    0.7952496557
H        2.7815885019   -2.0046583897   -0.8595319390
18   
torsion grid (-105,)
C        5.6914919468    1.5463812782    0.5903337555
C        4.7531698816    1.2362266254    1.5803988584
C        5.6006105817    0.9375534830   -0.6653307025
C        3.7304767385    0.3221388708    1.3137184736
C        4.5752766908    0.0247475120   -0.9290187753
C        3.6319149006   -0.2911572332    0.0570796628
C        2.5118554790   -1.2643110919   -0.2358665704
C        1.2012222250   -0.6029160338   -0.6846781463
F        0.2705582747   -0.6141495717    0.3079652456
F        0.6496632681   -1.2801108153   -1.7294845149
F        1.3475465555    0.6780360304   -1.0828300743
H        6.4890905408    2.2551895931    0.7969122723
H        4.8189092437    1.7041268933    2.5591971011
H        6.3274820167    1.1719984558   -1.4386082960
H        3.0030966054    0.0844224557    2.0869438585
H        4.5079879772   -0.4433648025   -1.9086460906
H        2.2749195791   -1.8749547375    0.6381863828
H        2.8062690942   -1.9432672132   -1.0390770093
18   
torsion grid (-90,)
C        5.6836558166    1.5456546491    0.6182098584
C        4.7513580000    1.2070070844    1.6043824714
C        5.5916650261    0.9645610315   -0.6506275825
C        3.7335854376    0.2919223547    1.3215018766
C        4.5717647057    0.0508838338   -0.9307421732
C        3.6345885896   -0.2939489870    0.0518285791
C        2.5198655339   -1.2676824693   -0.2594757058
C        1.2165735606   -0.5980347603   -0.6924407844
F        0.4114063461   -0.3319498058    0.3707513702
F        0.5045585059   -1.4226613185   -1.5099922697
F        1.4018427832    0.5580446268   -1.3637645511
H        6.4772324362    2.2551874817    0.8374708638
H        4.8175817762    1.6534934609    2.5930922985
H        6.3134484328    1.2216113488   -1.4214681244
H        3.0101648307    0.0327272345    2.0912846886
H        4.5029655245   -0.3945731449   -1.9206506978
H        2.2794494577   -1.9001020747    0.5982900936
H        2.8150717031   -1.9252967944   -1.0808497556
18   
torsion grid (-75,)
C        5.6566961533    1.5588434491    0.6326726579
C        4.7285005449    1.1921385753    1.6126789011
C        5.5699132762    1.0011917470   -0.6469757147
C        3.7200560750    0.2721126799    1.3130337236
C        4.5593667822    0.0823976120   -0.9438317208
C        3.6264490344   -0.2910431320    0.0326519484
C        2.5227110415   -1.2717335167   -0.2958931470
C        1.2245046041   -0.6018020046   -0.7216863503
F        0.5634031123   -0.0609107576    0.3344187773
F        0.3801465570   -1.5110932599   -1.2816876469
F        1.4106215527    0.3793454039   -1.6324457972
H        6.4430166474    2.2722840596    0.8650701436
H        4.7903909048    1.6206774993    2.6095695962
H        6.2883518120    1.2804431438   -1.4131994871
H        2.9991981146   -0.0079283976    2.0775691349
H        4.4940726909   -0.3445838587   -1.9419386080
H        2.2801022454   -1.9112647134    0.5566211877
H        2.8198460351   -1.9215792081   -1.1231836573
18   
torsion grid (-60,)
C        5.6383769591    1.5459551106    0.6552128607
C        4.7369430487    1.1342013068    1.6421695555
C        5.5208737732    1.0420741685   -0.6442262845
C        3.7242097351    0.2230332928    1.3300215398
C        4.5070765171    0.1310769993   -0.9533557623
C        3.6006088297   -0.2871044078    0.0304709710
C        2.4946482290   -1.2612568821   -0.3093061224
C        1.2191545537   -0.5832029285   -0.7803714098
F        0.7051589289    0.2518443196    0.1553763935
F        0.2597359393   -1.5050800499   -1.0615553883
F        1.4109916169    0.1457399813   -1.9070545901
H        6.4277824399    2.2527108106    0.8973979763
H        4.8226168921    1.5209204353    2.6542696239
H        6.2182726411    1.3568363831   -1.4161117027
H        3.0235200305   -0.0907298564    2.1001670339
H        4.4177181821   -0.2546414762   -1.9661516617
H        2.2215795164   -1.8682768439    0.5580126539
H        2.7978664745   -1.9430732910   -1.1083303568
18   
torsion grid (-45,)
C        5.7472687330    1.3061104188    0.8370754520
C        4.4969354391    1.8901524636    1.0650652144
C        5.8458941992    0.1789942022    0.0149733973
C        3.3524709996    1.3493624588    0.4726883692
C        4.6992949795   -0.3604730395   -0.5747436128
C        3.4434486803    0.2197010903   -0.3523812532
C        2.2024026475   -0.3755131819   -0.9792898272
C        1.4638147316   -1.3409317821   -0.0634560101
F        2.2932121822   -2.2060633314    0.5640384266
F        0.5572984023   -2.0762854304   -0.7576455717
F        0.7775862125   -0.6816649001    0.9083876958
H        6.6383802640    1.7274368373    1.2950174674
H        4.4128933031    2.7666890995    1.7021565708
H        6.8142005247   -0.2795104079   -0.1677471703
H        2.3823407960    1.8054224448    0.6552187769
H        4.7813876266   -1.2397680010   -1.2095136698
H        2.4608138658   -0.9389056736   -1.8799411691
H        1.4830679184    0.3953521890   -1.2676961909
18   
torsion grid (-30,)
C        5.7606259966    1.2875849936    0.8254315161
C        4.5149392702    1.8709912743    1.0790944589
C        5.8451340732    0.1749025775   -0.0176499068
C        3.3615060761    1.3437124179    0.4919972095
C        4.6901323501   -0.3516353568   -0.6025964848
C        3.4394576681    0.2280659268   -0.3532254814
C        2.1880560448   -0.3536636718   -0.9721452945
C        1.4474339558   -1.3353122218   -0.0645532273
F        2.2650041158   -1.9996600252    0.7819637728
F        0.7654767488   -2.2600109584   -0.7875273833
F        0.5327008697   -0.6907387176    0.7129995201
H        6.6587571744    1.6983037691    1.2792659203
H        4.4417254282    2.7367704783    1.7320391126
H        6.8098105076   -0.2827057704   -0.2206573823
H        2.3948252982    1.7997459874    0.6935116380
H        4.7619530538   -1.2196324483   -1.2542029129
H        2.4421437318   -0.9033945648   -1.8821226069
H        1.4705476544    0.4226930133   -1.2477261648
18   
torsion grid (-15,)
C        5.8066400771    1.3269097026    0.7695272141
C        4.5755258010    1.9290846660    1.0493933825
C        5.8556700761    0.2066764728   -0.0662967074
C        3.4011831536    1.4120143629    0.4957883144
C        4.6789541324   -0.3084424576   -0.6173476541
C        3.4421816449    0.2889157232   -0.3417529141
C        2.1680057055   -0.2809614224   -0.9238028555
C        1.4449260739   -1.2792023132   -0.0080792131
F        2.2098266281   -1.7271850177    1.0112887392
F        1.0159307928   -2.3669336904   -0.6993229192
F        0.3410526539   -0.7162317292    0.5587187774
H        6.7211506549    1.7292983133    1.1973260995
H        4.5301362607    2.8011391392    1.6965050428
H        6.8089267976   -0.2650187524   -0.2900688374
H        2.4461311456    1.8835036748    0.7170839215
H        4.7231906379   -1.1815613813   -1.2647004711
H        2.3861980481   -0.8123052912   -1.8530995864
H        1.4499923319    0.5073422373   -1.1596785806
18   
torsion grid (0,)
C        5.8195006497    1.2817677961    0.7800874216
C        4.6095453074    1.9233619108    1.0639279226
C        5.8294089215    0.1595964389   -0.0547494415
C        3.4168213880    1.4431395663    0.5160876792
C        4.6347359736   -0.3176587349   -0.6007950651
C        3.4183913139    0.3189809476   -0.3203186335
C        2.1243917241   -0.2107593554   -0.8964873629
C        1.4182140126   -1.2615067014   -0.0218138488
F        2.0751068469   -1.5399901245    1.1252951644
F        1.2702584458   -2.4397838131   -0.6857723578
F        0.1688127850   -0.8538020240    0.3300436777
H        6.7480433560    1.6551739531    1.2039113078
H        4.5946207796    2.7973761706    1.7098069651
H        6.7662605779   -0.3425279365   -0.2816037113
H        2.4784579728    1.9454267484    0.7411967331
H        4.6482316752   -1.1915442405   -1.2485861307
H        2.2987871488   -0.6775459117   -1.8682108661
H        1.4104450456    0.6013884950   -1.0488705819
18   
torsion grid (15,)
C        5.8421128629    1.2764512320    0.7374798188
C        4.6509094548    1.9440297682    1.0396215909
C        5.8128465214    0.1458641686   -0.0856259581
C        3.4376603548    1.4815780570    0.5220834263
C        4.5981817771   -0.3130629102   -0.6022429945
C        3.4001781561    0.3500054857   -0.3028516104
C        2.0844442158   -0.1599566181   -0.8467599665
C        1.4253472527   -1.2503656690    0.0102377322
F        1.9481613828   -1.3493979454    1.2518949752
F        1.5643699484   -2.4782935151   -0.5639944625
F        0.0916259863   -1.0344157942    0.1496734719
H        6.7862883001    1.6360684227    1.1380669569
H        4.6661644590    2.8245551143    1.6765731969
H        6.7348994355   -0.3768113171   -0.3262874350
H        2.5141437154    2.0036299338    0.7627885180
H        4.5807358099   -1.1932256535   -1.2413108807
H        2.2018840698   -0.5756290585   -1.8497671512
H        1.3652557883    0.6595539712   -0.9153219069
18   
torsion grid (30,)
C        5.8495543116    1.2542034950    0.7113758880
C        4.6670667220    1.9255100052    1.0387688588
C        5.8001510839    0.1344976061   -0.1253462007
C        3.4429970064    1.4788238219    0.5331592324
C        4.5743556526   -0.3082769521   -0.6300664654
C        3.3847535982    0.3585999321   -0.3059683901
C        2.0575703639   -0.1346865965   -0.8378089869
C        1.4270844250   -1.2436910404    0.0039149377
F        1.7474088107   -1.1660350361    1.3144885905
F        1.8345794001   -2.4735599456   -0.4187404035
F        0.0730054150   -1.2259748912   -0.0886191749
H        6.8018066229    1.6021746012    1.1030777756
H        4.6974937079    2.7973082613    1.6870546734
H        6.7145723207   -0.3920653318   -0.3858767207
H        2.5269635202    2.0034940411    0.7952504389
H        4.5410487944   -1.1805203256   -1.2789257229
H        2.1454642592   -0.5232642588   -1.8550639928
H        1.3355917385    0.6856964685   -0.8614898999
18   
torsion grid (45,)
C        5.8608551238    1.2347400661    0.6995876242
C        4.6852065993    1.9023302336    1.0577648284
C        5.7994054203    0.1306827941   -0.1569344817
C        3.4541207083    1.4656504950    0.5606784847
C        4.5663280766   -0.3016478381   -0.6527558009
C        3.3830449485    0.3614805559   -0.2990088207
C        2.0477646520   -0.1179766777   -0.8230705496
C        1.4302914241   -1.2274522481    0.0159050349
F        1.5000820294   -0.9810516116    1.3442989102
F        2.0523084374   -2.4182969005   -0.1950971229
F        0.1205629202   -1.4047919725   -0.2970218238
H        6.8191893217    1.5740799586    1.0839134853
H        4.7262202991    2.7616182218    1.7220112415
H        6.7095283411   -0.3917985947   -0.4397807434
H        2.5422274622    1.9852705379    0.8456922245
H        4.5224555975   -1.1620897343   -1.3162242441
H        2.1263724662   -0.5032675305   -1.8429758655
H        1.3240315924    0.7013967700   -0.8349458789
18   
torsion grid (60,)
C        5.8363408413    1.2078885349    0.6592632677
C        4.6566061110    1.8356608637    1.0719049462
C        5.7750639989    0.1332343120   -0.2338912789
C        3.4228527434    1.3884028356    0.5912397863
C        4.5396771565   -0.3115805472   -0.7126150993
C        3.3530062835    0.3128228489   -0.3047506157
C        2.0148485859   -0.1783497543   -0.8103326138
C        1.4005125640   -1.2578797102    0.0648371044
F        1.1852995790   -0.8311197795    1.3330904554
F        2.1799009424   -2.3641504405    0.1395210960
F        0.1970455957   -1.6520585493   -0.4317938930
H        6.7972836765    1.5551921369    1.0297504674
H        4.6965616522    2.6718467529    1.7650737356
H        6.6885397759   -0.3579523674   -0.5587416961
H        2.5075633809    1.8765478943    0.9175400855
H        4.4973126578   -1.1500362892   -1.4038274147
H        2.1015426195   -0.6033149434   -1.8138895395
H        1.2862584892    0.6354259828   -0.8570977397
18   
torsion grid (75,)
C        5.8632196886    1.1920637285    0.6525608838
C        4.6857264789    1.7938615368    1.1082799474
C        5.7941815840    0.1573567017   -0.2859140502
C        3.4466990508    1.3625127136    0.6265632223
C        4.5535696247   -0.2725464888   -0.7649220864
C        3.3695365519    0.3260731129   -0.3141876922
C        2.0272145366   -0.1527058372   -0.8208294947
C        1.3820876454   -1.2029346160    0.0714017011
F        0.8696168924   -0.6589315001    1.2054736135
F        2.2386547050   -2.1816370247    0.4391730998
F        0.3436711074   -1.8030170063   -0.5729186234
H        6.8275671812    1.5283113846    1.0244125192
H        4.7318188300    2.5991963576    1.8366913728
H        6.7050016639   -0.3142382075   -0.6454121865
H        2.5338525184    1.8317459736    0.9858940540
H        4.5057239401   -1.0805818015   -1.4912874693
H        2.1301243008   -0.6087439418   -1.8090218765
H        1.3097107024    0.6671477012   -0.9080799316
18   
torsion grid (90,)
C        5.8823314845    1.1942793141    0.6239289835
C        4.7141373948    1.7918060749    1.1083582815
C        5.7947334417    0.1744699646   -0.3291745623
C        3.4662434491    1.3706167186    0.6407839920
C        4.5451660365   -0.2454338245   -0.7936369458
C        3.3705779779    0.3485233555   -0.3138351226
C        2.0185188427   -0.1209961682   -0.8028817087
C        1.3694933865   -1.1761068078    0.0915060007
F        0.5964113399   -0.6097350642    1.0564178396
F        2.2596758887   -1.9848911867    0.7038533905
F        0.5414371727   -1.9756460904   -0.6368121308
H        6.8536644391    1.5224318236    0.9846286855
H        4.7745944941    2.5859058709    1.8479767065
H        6.6982222583   -0.2933663047   -0.7113737025
H        2.5605415869    1.8374053598    1.0214355429
H        4.4833521851   -1.0418508663   -1.5318687519
H        2.1145368728   -0.5741276875   -1.7926865623
H        1.3061927429    0.7031444307   -0.8859399562
18   
torsion grid (105,)
C        5.8956160180    1.1724001013    0.6102006608
C        4.7359447718    1.7640487775    1.1220479213
C        5.7918966179    0.1714886278   -0.3609016731
C        3.4806867378    1.3552482059    0.6640046585
C        4.5344366193   -0.2359296801   -0.8157101497
C        3.3685427253    0.3516155126   -0.3081653698
C        2.0082810522   -0.1039983823   -0.7872823213
C        1.3523536806   -1.1740792335    0.0966954458
F        0.3498722335   -0.6507893202    0.8535661856
F        2.2123392832   -1.7860328150    0.9374312113
F        0.7835117061   -2.1493943948   -0.6647061622
H        6.8727741659    1.4910320566    0.9635924784
H        4.8091750289    2.5439317303    1.8755171524
H        6.6886329957   -0.2910807724   -0.7648323591
H        2.5818650314    1.8183469262    1.0654175458
H        4.4600274030   -1.0170517807   -1.5691280823
H        2.0890073162   -0.5358671010   -1.7872170607
H        1.3060774881    0.7303996341   -0.8471984375
18   
torsion grid (120,)
C        5.9190683900    1.1813505200    0.5781644841
C        4.7858221952    1.8166039276    1.0962419596
C        5.7704310153    0.1627487793   -0.3687723056
C        3.5114071947    1.4330740231    0.6694840292
C        4.4944507034   -0.2179484342   -0.7931500234
C        3.3541885183    0.4128973822   -0.2780777400
C        1.9737169219   -0.0139751680   -0.7243133977
C        1.3491700500   -1.1395417156    0.1187738091
F        0.1828468821   -0.7389259808    0.6933890858
F        2.1477551520   -1.5737787192    1.1179434482
F        1.0525225556   -2.2245983348   -0.6467735213
H        6.9108061056    1.4798336402    0.9077261608
H        4.8940362095    2.6106283211    1.8304772977
H        6.6467584251   -0.3335937900   -0.7774043026
H        2.6333520213    1.9298410455    1.0765979067
H        4.3845866245   -1.0116192950   -1.5290214504
H        1.9969805523   -0.3712099605   -1.7560063529
H        1.2795295829    0.8281738129   -0.6869125653
18   
torsion grid (135,)
C        5.8078869086    1.4346815206    0.4140597253
C        4.8533352217    1.3671264086    1.4343412014
C        5.6516284243    0.6479821886   -0.7315450594
C        3.7507106176    0.5180804971    1.3072740477
C        4.5466586602   -0.1991459795   -0.8556372476
C        3.5864058986   -0.2723505397    0.1615019743
C        2.3822270811   -1.1760472277    0.0176495734
C        1.1336750559   -0.4828467883   -0.5470972045
F        0.5395732465   -1.2452083820   -1.5040959338
F        1.4014243522    0.7117555462   -1.1223021381
F        0.2035095906   -0.2559846073    0.4172900505
H        6.6673899333    2.0926276027    0.5122589392
H        4.9684519400    1.9737574940    2.3287869828
H        6.3899588955    0.6928439962   -1.5278553185
H        3.0114792434    0.4701525784    2.1039373633
H        4.4298864957   -0.8059749612   -1.7508537279
H        2.0959960591   -1.6124343630    0.9771900044
H        2.6118699348   -2.0012602095   -0.6601427867
18   
torsion grid (150,)
C        5.8046201654    1.4366649562    0.4466362765
C        4.8537343854    1.3414288647    1.4679279838
C        5.6493694250    0.6772365441   -0.7175615304
C        3.7544319505    0.4904786826    1.3239133848
C        4.5480394688   -0.1714858708   -0.8590620402
C        3.5916672430   -0.2728339749    0.1595693239
C        2.3911566979   -1.1782167908   -0.0031407567
C        1.1499654906   -0.4698844337   -0.5455600717
F        0.3780822367   -1.3256258393   -1.2677415255
F        1.4524862118    0.5588161249   -1.3720067666
F        0.3759353013    0.0342718498    0.4492509200
H        6.6614734463    2.0959522644    0.5580555861
H        4.9687161053    1.9274413221    2.3760342631
H        6.3851148972    0.7449688141   -1.5146398902
H        3.0169384683    0.4205514543    2.1203625794
H        4.4301944027   -0.7561027820   -1.7686644040
H        2.1035062955   -1.6450298959    0.9420495419
H        2.6198327924   -1.9804229572   -0.7090786292
18   
torsion grid (165,)
C        5.7763317857    1.4478951549    0.4608449281
C        4.8266055812    1.3206164679    1.4796977528
C        5.6280877485    0.7110266946   -0.7186425336
C        3.7365463164    0.4607482686    1.3189652974
C        4.5362160306   -0.1469188135   -0.8770665857
C        3.5813703064   -0.2808732827    0.1396004143
C        2.3921362366   -1.1979606306   -0.0404410454
C        1.1574174276   -0.4911596331   -0.5809395635
F        0.2429969317   -1.3919925304   -1.0297442019
F        1.4422807541    0.3229451464   -1.6251908729
F        0.5475117301    0.2680541447    0.3637878162
H        6.6259653380    2.1141155842    0.5857614845
H        4.9352501976    1.8889816061    2.3997048625
H        6.3622052970    0.8034598719   -1.5147286544
H        3.0000157727    0.3675170020    2.1135952443
H        4.4240215929   -0.7133734314   -1.7986305718
H        2.0986164970   -1.6712375877    0.9002989681
H        2.6260721939   -1.9943366718   -0.7516818556
18   
torsion grid (180,)
C        5.7688485215    1.4698781500    0.4799444471
C        4.8447901528    1.3009014999    1.5162178385
C        5.6027311376    0.7658350494   -0.7170695808
C        3.7619780070    0.4322158589    1.3546154105
C        4.5187677245   -0.1022046991   -0.8752997741
C        3.5890649823   -0.2778680483    0.1586336486
C        2.4083288635   -1.2061269145   -0.0201909311
C        1.1786910606   -0.5141704490   -0.5834077730
F        0.1521254410   -1.3952192096   -0.7220653365
F        1.4077325996    0.0242140538   -1.8063087479
F        0.7379760812    0.4850198016    0.2195081364
H        6.6127723204    2.1432853085    0.6050323722
H        4.9674365283    1.8437690016    2.4497631375
H        6.3169124586    0.8912140326   -1.5266746130
H        3.0443858160    0.3077608879    2.1621087875
H        4.3927158448   -0.6438975490   -1.8097456639
H        2.1061886948   -1.6516023139    0.9313724127
H        2.6469219718   -2.0227510115   -0.7069008268
