16   
torsion grid (-75,)
C        0.1243119083    1.1084350756    1.8876895523
C        0.3148711280    0.8033734794    3.2562276127
C       -0.3642170211    0.0198446875    1.0962732421
C       -4.2847801677   -1.8447485028    4.3553467553
C       -4.3312452188   -2.3850248097    3.0976611367
C       -1.2097262425   -0.7171708589    2.9410485021
C       -2.4759346616   -1.3088095797    3.3617024513
N       -0.3855583337   -0.2080719998    3.8710552928
N       -0.6463223539   -1.1105398769    1.7766953343
N       -3.1004796961   -1.1558052828    4.5040873886
O       -3.1863416292   -2.0422256902    2.4476970620
H        0.4891367305    2.0312841402    1.4505640583
H        1.0220949107    1.3552722949    3.8700973780
H       -0.1713520562   -0.0504915860    0.0267782282
H       -5.0181974650   -1.9062720816    5.1482317143
H       -5.0413188139   -2.9878716084    2.5506015383
16   
torsion grid (-60,)
C        0.2643827847    1.1063716693    1.8641951227
C        0.3107224439    0.8355894020    3.2457211639
C       -0.2886874424    0.0715131998    1.0752777300
C       -4.2901792952   -1.9085429260    4.3968153133
C       -4.3570255945   -2.4394371464    3.1382533820
C       -1.3058516861   -0.6479963252    2.8907089236
C       -2.5404509354   -1.2865598353    3.3487342187
N       -0.5041929238   -0.0850057337    3.8138832788
N       -0.7954480482   -1.0109928065    1.6958976068
N       -3.1286819340   -1.1708757767    4.5125358390
O       -3.2476887857   -2.0425410287    2.4528215213
H        0.7547158451    1.9704054041    1.4288506491
H        1.0053612388    1.3502180316    3.9058748734
H       -0.0773224371   -0.0121141108    0.0104434120
H       -4.9919602620   -2.0070349556    5.2141931767
H       -5.0582598201   -3.0672691529    2.6084480270
16   
torsion grid (-45,)
C        0.3670700061    1.0791531375    1.8653826815
C        0.2892021019    0.8613502306    3.2503303117
C       -0.2476990895    0.1018116081    1.0628175632
C       -4.2812371547   -1.9621629685    4.4317944695
C       -4.3685852634   -2.4754470389    3.1686077781
C       -1.3663597557   -0.6004808967    2.8667278555
C       -2.5803294228   -1.2717403785    3.3469357734
N       -0.6003958267    0.0069748531    3.7900368129
N       -0.9269433758   -0.9048272898    1.6317701962
N       -3.1366424142   -1.1928257292    4.5279256177
O       -3.2885633401   -2.0359303498    2.4597765982
H        0.9640641057    1.8804240418    1.4424893109
H        0.9504177117    1.3784941775    3.9431064079
H       -0.0219935522    0.0156288930    0.0011846354
H       -4.9563643130   -2.0926773083    5.2669192653
H       -5.0656376770   -3.1149680616    2.6474464050
16   
torsion grid (-30,)
C        0.4594635830    1.0279806956    1.8535555510
C        0.2739851780    0.8843781382    3.2345141414
C       -0.2144687473    0.1035391133    1.0465708825
C       -4.2640957248   -2.0097165321    4.4552473031
C       -4.3796496035   -2.4940170633    3.1836311143
C       -1.4179008714   -0.5590443048    2.8381808614
C       -2.6132815406   -1.2546699601    3.3364590880
N       -0.6747011114    0.0913302874    3.7502835651
N       -1.0429807464   -0.8080348325    1.5712508712
N       -3.1326266941   -1.2179299635    4.5354629598
O       -3.3304717919   -2.0145427521    2.4533650638
H        1.1517964930    1.7541415725    1.4399293308
H        0.9011977495    1.4173047372    3.9474531573
H        0.0086812823    0.0107348086   -0.0152220474
H       -4.9098350913   -2.1747827780    5.3073184219
H       -5.0789369180   -3.1351660764    2.6675602895
16   
torsion grid (-15,)
C        0.5433364452    0.9721599781    1.8468611282
C        0.2554531099    0.9211622247    3.2140491819
C       -0.1876345940    0.1054859078    1.0313775228
C       -4.2438628103   -2.0465691161    4.4585605841
C       -4.3839980591   -2.4997456543    3.1783471197
C       -1.4625259744   -0.5070765928    2.8081853088
C       -2.6406984845   -1.2259873865    3.3169271586
N       -0.7464649698    0.1885158837    3.7081118932
N       -1.1413645043   -0.6974067820    1.5163812422
N       -3.1267005319   -1.2331514289    4.5299767746
O       -3.3641496044   -1.9796209560    2.4338537703
H        1.3227347927    1.6138674238    1.4484006122
H        0.8452777690    1.4834414241    3.9367490841
H        0.0344511922    0.0062458004   -0.0302779968
H       -4.8625685564   -2.2474829832    5.3228972546
H       -5.0842921108   -3.1407178831    2.6634430636
16   
torsion grid (0,)
C        0.6071266932    0.9052125022    1.8660307062
C        0.2328069248    0.9493656891    3.2119711284
C       -0.1817532540    0.1124779436    1.0306996656
C       -4.2209525575   -2.0866312739    4.4633588724
C       -4.3774754621   -2.5146076241    3.1764778821
C       -1.5045953976   -0.4537539315    2.7931133990
C       -2.6648808152   -1.1996137126    3.3061852312
N       -0.8178848152    0.2767347676    3.6879035850
N       -1.2388734003   -0.5712295593    1.4805986922
N       -3.1226275434   -1.2474561705    4.5292057132
O       -3.3865854081   -1.9539445858    2.4223645702
H        1.4636162500    1.4566820227    1.4912053963
H        0.7927810979    1.5430704029    3.9334658939
H        0.0370560862    0.0200317065   -0.0322993829
H       -4.8158098778   -2.3218966447    5.3357447906
H       -5.0734905976   -3.1605363884    2.6619872771
16   
torsion grid (15,)
C        0.6537923816    0.8247888071    1.8824151574
C        0.2131404180    0.9776221686    3.2004246197
C       -0.1901263725    0.1088124066    1.0305728880
C       -4.1897875983   -2.1187159568    4.4759716042
C       -4.3661975893   -2.5234896192    3.1840771797
C       -1.5443533882   -0.3978949580    2.7818429537
C       -2.6842434509   -1.1678826142    3.3029105813
N       -0.8821616511    0.3695733202    3.6644267999
N       -1.3336396142   -0.4408633634    1.4544838986
N       -3.1106850651   -1.2545182609    4.5351364824
O       -3.4061231496   -1.9236103958    2.4203409516
H        1.5754065091    1.2767462660    1.5297354844
H        0.7528518430    1.6067651228    3.9069916739
H        0.0231293566    0.0213519837   -0.0339250533
H       -4.7583163911   -2.3865798697    5.3564629821
H       -5.0589414951   -3.1745333557    2.6716014820
16   
torsion grid (30,)
C        0.6782492593    0.7360764805    1.9239878542
C        0.1802004178    1.0095150606    3.2043195441
C       -0.2035258320    0.0889448073    1.0500916735
C       -4.1611263880   -2.1470942235    4.4883946897
C       -4.3607619074   -2.5192108339    3.1897098268
C       -1.5854614918   -0.3354736893    2.7842353465
C       -2.7067426701   -1.1299648837    3.3063686249
N       -0.9595282083    0.4713614350    3.6585858975
N       -1.4180888084   -0.3075484452    1.4504889533
N       -3.0996127047   -1.2619712567    4.5460891347
O       -3.4325022123   -1.8784044231    2.4205159676
H        1.6547148848    1.0831390344    1.6018333267
H        0.7063764252    1.6772477700    3.8847313480
H        0.0160555841    0.0009018214   -0.0128501057
H       -4.7020093910   -2.4520627184    5.3742226605
H       -5.0531219393   -3.1696026108    2.6758693608
16   
torsion grid (45,)
C        0.6946434223    0.6421007150    1.9708363746
C        0.1600244894    1.0337095239    3.2087404308
C       -0.2189363789    0.0634402119    1.0720749388
C       -4.1171409373   -2.1810973829    4.4846217816
C       -4.3368338141   -2.5178039379    3.1788290752
C       -1.6143812901   -0.2695569300    2.7868795894
C       -2.7147782839   -1.0923477727    3.3036509116
N       -1.0236871325    0.5717497150    3.6537625276
N       -1.4856033447   -0.1594418001    1.4519171499
N       -3.0759306577   -1.2738216259    4.5474696092
O       -3.4408806822   -1.8326977227    2.4107396943
H        1.7134603801    0.8805629669    1.6837413724
H        0.6865193001    1.7306025291    3.8581447591
H        0.0075191533   -0.0237443488    0.0106835616
H       -4.6312750795   -2.5264128563    5.3715757877
H       -5.0258662131   -3.1680257558    2.6602499576
16   
torsion grid (60,)
C        0.6886240292    0.5403426529    2.0007698373
C        0.1438116039    1.0582933663    3.1919840368
C       -0.2623152801    0.0363329584    1.0837647664
C       -4.0624553199   -2.2123711234    4.4701268092
C       -4.2931936876   -2.5245981712    3.1588031223
C       -1.6451591427   -0.1952761906    2.7814715382
C       -2.7166716646   -1.0514353082    3.2920007910
N       -1.0846405503    0.6894509298    3.6270148943
N       -1.5578586929    0.0062436224    1.4504487785
N       -3.0497435126   -1.2761896354    4.5379468276
O       -3.4329191304   -1.7953971759    2.3931886214
H        1.7356085722    0.6616753832    1.7446301829
H        0.6855055317    1.7769854614    3.8028997745
H       -0.0371748276   -0.0656742187    0.0233651782
H       -4.5511639458   -2.5951488522    5.3561003011
H       -4.9707619784   -3.1840067876    2.6366174486
16   
torsion grid (75,)
C        0.6423595367    0.4172465111    2.0544629833
C        0.1129273725    1.0728197565    3.1912113258
C       -0.3379616711   -0.0151817939    1.1047234693
C       -3.9925121530   -2.2346939487    4.4494370731
C       -4.2258800501   -2.5255992045    3.1315812488
C       -1.6909467795   -0.0751058422    2.7861257117
C       -2.7203819001   -0.9826535677    3.2830057154
N       -1.1749221924    0.8451279040    3.6169296298
N       -1.6223089157    0.1916544163    1.4624909360
N       -3.0252696352   -1.2561456813    4.5282991541
O       -3.4126805221   -1.7402308784    2.3748304337
H        1.7056997724    0.4081157595    1.8422123921
H        0.7032992244    1.7806265549    3.7674615954
H       -0.1051525747   -0.1388143211    0.0480880179
H       -4.4512411299   -2.6627145792    5.3307534825
H       -4.8791852468   -3.2041881508    2.6027974972
