22   
torsion grid (-165,)
C        0.6528641857   -1.0821936510    0.4604486702
C        2.9120547069   -0.3355095453    0.8144394270
C        0.5979506193   -1.4638770190    1.7840724695
C        2.8066309349   -0.7373661842    2.1345106194
C        1.8234941144   -0.4926299875   -0.0562862577
C        3.1253653830    0.1731506526   -2.2741492833
C        2.4850965572   -1.1813863865   -2.4487476260
C        1.8829107555   -0.1552030276   -1.4980024068
C        1.5803588175   -1.7469166858    4.0171342580
N        1.6648342124   -1.2896499373    2.6084628484
F        0.7029452585    0.4189929423   -1.9264213722
H       -0.2177713226   -1.2266888129   -0.1698320929
H        3.8394939096    0.1187290842    0.4853007967
H       -0.2812969745   -1.9216933754    2.2234558435
H        3.6190112005   -0.6192374414    2.8424613855
H        4.0753269015    0.2405786253   -1.7535294356
H        2.9918944472    0.9000448723   -3.0685903479
H        1.9062385588   -1.3579844038   -3.3503091888
H        2.9730351220   -2.0531520375   -2.0245115384
H        1.7441762277   -2.8256001024    4.0572034378
H        2.3400366645   -1.2351288972    4.6057382130
H        0.5952362587   -1.5026866118    4.4139284570
22   
torsion grid (-150,)
C        0.7423396519   -1.2081540949    0.4251490048
C        2.8863781901   -0.2143158484    0.8669230445
C        0.6670868640   -1.5793656465    1.7526767676
C        2.7667361810   -0.6108320165    2.1893160328
C        1.8637100202   -0.5024289764   -0.0447991958
C        3.2014253715    0.0309285182   -2.2677752744
C        2.2844971165   -1.1512951846   -2.5257376317
C        1.9344109312   -0.1164507007   -1.4852854019
C        1.5744661383   -1.7288017576    4.0295006181
N        1.6706269852   -1.2790397385    2.6182030190
F        0.8847442830    0.7279785625   -1.8015453580
H       -0.0754310938   -1.4586068600   -0.2424570238
H        3.7710522587    0.3339614213    0.5624234704
H       -0.1761696056   -2.1245225945    2.1617699357
H        3.5281631977   -0.3996599450    2.9315128394
H        4.1524655023   -0.1511245571   -1.7762795292
H        3.2124859687    0.8262649242   -3.0057481214
H        1.6792864261   -1.1296543618   -3.4268871571
H        2.5998949376   -2.1367989433   -2.1968691820
H        1.8817672986   -2.7742922137    4.0958281558
H        2.2245693889   -1.1109362239    4.6468144296
H        0.5453805265   -1.6182616926    4.3700434340
22   
torsion grid (-135,)
C        0.8527181437   -1.3517898305    0.3955629311
C        2.8444771438   -0.1070948177    0.9094043005
C        0.7588686167   -1.7044261091    1.7294536404
C        2.7099750431   -0.4872341307    2.2348582089
C        1.9073305739   -0.5352977967   -0.0383435483
C        3.2471813563   -0.1290783629   -2.2734872651
C        2.0919527627   -1.0707784905   -2.6027345127
C        1.9877478803   -0.0976642192   -1.4699111347
C        1.5674604622   -1.7010159779    4.0460326868
N        1.6781669680   -1.2714572536    2.6289255018
F        1.1435352338    0.9870903414   -1.6535559397
H        0.1017854200   -1.7081108900   -0.3019888529
H        3.6753147814    0.5292305615    0.6231998666
H       -0.0366953769   -2.3316956746    2.1159253173
H        3.4070207219   -0.1780178584    3.0053205585
H        4.1443717265   -0.5513979802   -1.8301185982
H        3.4111336620    0.7091559274   -2.9428418798
H        1.5008270581   -0.8428168567   -3.4840161775
H        2.2072821267   -2.1274047947   -2.3792902406
H        1.9808869557   -2.7059897712    4.1500487481
H        2.1203790510   -1.0051035300    4.6747200620
H        0.5181662276   -1.6945104155    4.3396132043
22   
torsion grid (-120,)
C        2.2249886669    0.2362148529    0.8977465164
C        2.1221289772   -2.1175223334    0.4195694171
C        1.9269450985   -0.0458000017    2.2209255200
C        1.8281564361   -2.3507542906    1.7504401905
C        2.3235752352   -0.8050659047   -0.0327966401
C        1.8422998040   -0.8894949056   -2.6165907766
C        2.1908411973    0.5623104267   -2.2918332455
C        2.7236171168   -0.5528545705   -1.4542840679
C        1.3782713885   -1.6015694734    4.0452346442
N        1.7351828801   -1.3224442007    2.6312262951
F        4.0707766996   -0.8574913853   -1.5928470284
H        2.3873511783    1.2667710923    0.6001122871
H        2.1980192768   -2.9583404661   -0.2621138071
H        1.8425707209    0.7252152809    2.9783332050
H        1.6617823249   -3.3453231281    2.1488429646
H        0.8290637253   -1.2306898099   -2.4256855534
H        2.3342468314   -1.3406416832   -3.4724175780
H        2.9057050720    1.0592847565   -2.9393623273
H        1.4088154672    1.1987823946   -1.8878379473
H        0.2921838122   -1.6649122128    4.1359308014
H        1.8351340288   -2.5426034625    4.3493956351
H        1.7582306004   -0.7984789048    4.6747883716
22   
torsion grid (-105,)
C        2.1089477307    0.2209127758    0.8601055688
C        2.2418466293   -2.1444179337    0.4499221265
C        1.8104093156   -0.0532388945    2.1849861189
C        1.9440495945   -2.3675765986    1.7796478809
C        2.3175418320   -0.8298770327   -0.0413651324
C        1.7232161533   -0.7744180875   -2.5901620759
C        2.3388343624    0.5870492407   -2.2861884009
C        2.7063605810   -0.6044853247   -1.4647825935
C        1.3724463343   -1.6040961642    4.0435479006
N        1.7313383917   -1.3294151367    2.6297052479
F        3.9612915283   -1.1544192307   -1.6823740048
H        2.1879257052    1.2550534821    0.5431606594
H        2.4198278044   -2.9924016188   -0.2029904499
H        1.6444635217    0.7276289789    2.9184647142
H        1.8671983870   -3.3624892211    2.2036078745
H        0.6762232421   -0.9343555265   -2.3516485262
H        2.0956184818   -1.3104387716   -3.4575623965
H        3.1049543830    0.9524389625   -2.9618248342
H        1.7013017520    1.3526830571   -1.8540379717
H        0.2970730231   -1.7786457339    4.1144347937
H        1.9176778528   -2.4828762500    4.3861306241
H        1.6513399326   -0.7480229018    4.6559997531
22   
torsion grid (-90,)
C        1.9993744893    0.1912954880    0.8169675511
C        2.3554465559   -2.1637535438    0.4815470787
C        1.7013295838   -0.0724497621    2.1426335291
C        2.0524776088   -2.3744150330    1.8108888614
C        2.3156812011   -0.8621507334   -0.0525907715
C        1.6270444449   -0.6459574481   -2.5572667651
C        2.4713086011    0.5863866295   -2.2798165452
C        2.6850394589   -0.6568817517   -1.4760092791
C        1.3688115685   -1.6017000049    4.0412733862
N        1.7282046232   -1.3370200530    2.6263890696
F        3.8129549032   -1.4015065750   -1.7802055592
H        1.9938426424    1.2210481417    0.4781322267
H        2.6306301172   -3.0091225852   -0.1395092821
H        1.4558306843    0.7120447949    2.8494111231
H        2.0606111516   -3.3600306763    2.2625580831
H        0.5826025992   -0.6400966249   -2.2620982304
H        1.8663857585   -1.2362380465   -3.4363463634
H        3.2609173785    0.8235766190   -2.9849296916
H        1.9967521833    1.4460348489   -1.8169558841
H        0.3112918302   -1.8663770247    4.1014702480
H        1.9810596608   -2.4201002713    4.4185444823
H        1.5622894941   -0.7079943177    4.6326896089
22   
torsion grid (-75,)
C        1.8932615494    0.1450596456    0.7670426291
C        2.4573497194   -2.1801482874    0.5117575643
C        1.5996541720   -0.1022221352    2.0946448173
C        2.1524113035   -2.3725080032    1.8432060496
C        2.3133870659   -0.9043521105   -0.0675583458
C        1.5601296624   -0.5104080809   -2.5229718412
C        2.5881525851    0.5696955399   -2.2647620445
C        2.6583111260   -0.7140607376   -1.4915630115
C        1.3686914187   -1.5927184172    4.0396004694
N        1.7276067445   -1.3442089796    2.6222126537
F        3.6470254070   -1.5996142977   -1.8796051601
H        1.7986851441    1.1604802743    0.3999999672
H        2.8149937884   -3.0173389237   -0.0765097279
H        1.2756948862    0.6803261386    2.7712919463
H        2.2398549709   -3.3396109627    2.3254790533
H        0.5446951377   -0.3656985048   -2.1683362499
H        1.6669649622   -1.1113905087   -3.4205973356
H        3.3767262395    0.6987629469   -2.9986281272
H        2.2816060187    1.4799168397   -1.7594954750
H        0.3295417346   -1.9228746201    4.0972017536
H        2.0269967189   -2.3596473778    4.4462199865
H        1.4981461834   -0.6728473676    4.6081473049
22   
torsion grid (-60,)
C        1.7763630159    0.0853384279    0.7130405136
C        2.5330247854   -2.1930313274    0.5373007168
C        1.4997827201   -0.1396848064    2.0462294354
C        2.2395174212   -2.3635208225    1.8746058264
C        2.2917041803   -0.9529328438   -0.0857007035
C        1.5261450884   -0.3712296207   -2.5001870521
C        2.6983516735    0.5403622321   -2.2360820426
C        2.6118688252   -0.7771118375   -1.5118452925
C        1.3846819637   -1.5759861358    4.0417386391
N        1.7297892816   -1.3485347068    2.6178041374
F        3.4620786539   -1.7655212079   -1.9655141893
H        1.5884242266    1.0747868555    0.3120971364
H        2.9557910803   -3.0188758228   -0.0222648203
H        1.1035298772    0.6343358584    2.6935373424
H        2.4042441409   -3.3037844424    2.3887634258
H        0.5503011234   -0.1117549785   -2.1021220739
H        1.5225518442   -0.9423357012   -3.4231609917
H        3.4793249983    0.5846485229   -2.9880404746
H        2.5494804812    1.4587628031   -1.6772918082
H        0.3690525418   -1.9710193224    4.1100537451
H        2.0904115506   -2.2856788752    4.4719876319
H        1.4534670649   -0.6326401784    4.5818277752
22   
torsion grid (-45,)
C        1.6524253064    0.0201500172    0.6638150755
C        2.5857239780   -2.1965149649    0.5550207156
C        1.4041469027   -0.1812471239    2.0052541074
C        2.3152940947   -2.3440082417    1.9002389561
C        2.2513496842   -0.9978918918   -0.1045762435
C        1.5208876902   -0.2372720254   -2.4900389263
C        2.8020227972    0.4960288901   -2.1992534851
C        2.5416584173   -0.8390126584   -1.5363245704
C        1.4133280288   -1.5552704538    4.0480860235
N        1.7337458484   -1.3483615803    2.6153793533
F        3.2587431552   -1.9036321464   -2.0389915913
H        1.3749325397    0.9750755916    0.2316037431
H        3.0599514557   -3.0083519179    0.0169812288
H        0.9445386165    0.5772943287    2.6285069285
H        2.5545955925   -3.2520733281    2.4422575030
H        0.5871620981    0.1235963354   -2.0701594972
H        1.4371953343   -0.7540576431   -3.4406998573
H        3.5786044137    0.4721930125   -2.9568443877
H        2.7867087569    1.3895743554   -1.5831175321
H        0.4290136505   -2.0195629888    4.1364956176
H        2.1703430580   -2.1989768075    4.4946211184
H        1.4175151194   -0.5930866886    4.5585225966
22   
torsion grid (-30,)
C        1.5202916565   -0.0438533934    0.6274749497
C        2.6197110524   -2.1843597368    0.5639236211
C        1.3086482822   -0.2242881791    1.9780470231
C        2.3811893130   -2.3136107438    1.9169638544
C        2.1936391505   -1.0298091853   -0.1212402357
C        1.5414156983   -0.1133822452   -2.4918980996
C        2.9007157977    0.4336430902   -2.1615865560
C        2.4517411533   -0.8899451022   -1.5607362501
C        1.4520698711   -1.5355020565    4.0568720581
N        1.7367042739   -1.3445346885    2.6144490031
F        3.0391374238   -2.0144369020   -2.0968134630
H        1.1580547815    0.8716053972    0.1731638748
H        3.1374958393   -2.9775802754    0.0384120317
H        0.7939160017    0.5108652193    2.5860541621
H        2.6940661186   -3.1865695937    2.4788499689
H        0.6532800100    0.3487053917   -2.0724021911
H        1.4061931161   -0.5713648566   -3.4664169211
H        3.6790242717    0.3421615148   -2.9124626675
H        2.9934181953    1.2867604701   -1.4967674864
H        0.5082797081   -2.0722161708    4.1728397859
H        2.2629073284   -2.1056765274    4.5088730702
H        1.3879874953   -0.5620193564    4.5411773439
22   
torsion grid (-15,)
C        1.3847790413   -0.1016498438    0.6065762657
C        2.6469441876   -2.1513372428    0.5659094844
C        1.2117371977   -0.2687695196    1.9651106123
C        2.4427307229   -2.2690126045    1.9251962309
C        2.1279068399   -1.0428034986   -0.1320008066
C        1.5822509153   -0.0003722759   -2.4968473983
C        2.9967269406    0.3487299552   -2.1354445904
C        2.3531739542   -0.9212368419   -1.5800623472
C        1.4915072414   -1.5214633824    4.0662613618
N        1.7375653906   -1.3372833206    2.6157516163
F        2.7998863950   -2.0983828338   -2.1379122660
H        0.9375588703    0.7680589502    0.1389464236
H        3.2079546432   -2.9181738645    0.0451938922
H        0.6442074296    0.4325375944    2.5660914600
H        2.8293608409   -3.1042272022    2.4984193644
H        0.7596152804    0.5763905562   -2.0862841545
H        1.4029163660   -0.4082116189   -3.4863947790
H        3.7698027193    0.1729880482   -2.8769120908
H        3.1882152782    1.1607863506   -1.4411542922
H        0.6021045248   -2.1388114668    4.2080181437
H        2.3571309428   -2.0057125198    4.5169922902
H        1.3458108166   -0.5474513486    4.5313224562
22   
torsion grid (0,)
C        1.2477354088   -0.1596339685    0.5973716278
C        2.6810364902   -2.0912275949    0.5658723103
C        1.1075094465   -0.3218948252    1.9619887666
C        2.5071772325   -2.2087587313    1.9289832282
C        2.0644471893   -1.0372210736   -0.1374401499
C        1.6373451738    0.1090385725   -2.4902418317
C        3.0911070695    0.2401671642   -2.1296520344
C        2.2618265625   -0.9278718455   -1.5950755379
C        1.5227462493   -1.5165301422    4.0736116532
N        1.7337888480   -1.3299631264    2.6175867634
F        2.5398188159   -2.1506304352   -2.1673316363
H        0.7124220340    0.6533525708    0.1209358701
H        3.2937209771   -2.8181230837    0.0453401438
H        0.4830364596    0.3311059535    2.5610309746
H        2.9707077074   -3.0000399545    2.5074432921
H        0.9171519899    0.8057068277   -2.0735512644
H        1.3982955868   -0.2458602654   -3.4874702550
H        3.8286040026   -0.0367022354   -2.8767641694
H        3.3977921158    1.0082906110   -1.4270017477
H        0.6933078359   -2.2083607616    4.2337828699
H        2.4332460616   -1.9168655602    4.5182014438
H        1.2970632816   -0.5533860259    4.5291565595
22   
torsion grid (15,)
C        1.1233845999   -0.2167135426    0.5949897274
C        2.7332826351   -2.0018868086    0.5709741541
C        1.0015869247   -0.3832673696    1.9631419967
C        2.5752567741   -2.1297173466    1.9353016471
C        2.0188453012   -1.0139820985   -0.1337028435
C        1.7036597597    0.2139966737   -2.4663049275
C        3.1763943017    0.1023624124   -2.1564148255
C        2.1885523157   -0.9144006359   -1.6033369197
C        1.5350517617   -1.5212965057    4.0782493925
N        1.7227789091   -1.3229741485    2.6199734777
F        2.2490775057   -2.1675593269   -2.1793305185
H        0.5098350729    0.5330592562    0.1089501643
H        3.4109442247   -2.6705069767    0.0516815708
H        0.3173622561    0.2082681950    2.5608522045
H        3.1125664934   -2.8696330912    2.5178443964
H        1.1319764953    1.0202450421   -2.0176056556
H        1.3763963514   -0.0755777005   -3.4595063395
H        3.8312788455   -0.2755974170   -2.9356869183
H        3.6251876821    0.8111132089   -1.4677232948
H        0.7801719877   -2.2926958475    4.2433775985
H        2.4823736624   -1.8252783438    4.5221637854
H        1.2139226786   -0.5833655584    4.5288890041
22   
torsion grid (30,)
C        1.0112963688   -0.2858410429    0.5896162359
C        2.8032294473   -1.8883795973    0.5837090597
C        0.8955819614   -0.4611997793    1.9589163878
C        2.6482205376   -2.0312981552    1.9483012767
C        1.9883471386   -0.9892761144   -0.1258283477
C        1.7870951012    0.3198219834   -2.4186785541
C        3.2411522977   -0.0621483977   -2.2099918541
C        2.1326337505   -0.8899006499   -1.6079101231
C        1.5318029471   -1.5310081786    4.0796710866
N        1.7073501030   -1.3188343463    2.6210241276
F        1.9210865100   -2.1302395111   -2.1838272722
H        0.3320731534    0.3957930455    0.0895938462
H        3.5585105917   -2.4755469069    0.0720251782
H        0.1516497324    0.0585859485    2.5520285964
H        3.2571612057   -2.7062681720    2.5391243209
H        1.4072773852    1.2039373219   -1.9152959082
H        1.3548481615    0.1276214324   -3.3951173568
H        3.7641710988   -0.5194256719   -3.0443435916
H        3.8521897947    0.5486269893   -1.5524625205
H        0.8597163348   -2.3760931088    4.2414203629
H        2.5025600676   -1.7342181750    4.5302681433
H        1.1119328498   -0.6301168433    4.5245337827
22   
torsion grid (45,)
C        0.9123307266   -0.3707128277    0.5803639252
C        2.8720178430   -1.7624173251    0.6001713704
C        0.7995407262   -0.5543746383    1.9487330427
C        2.7184681721   -1.9182713287    1.9657085947
C        1.9641617794   -0.9727163203   -0.1206914911
C        1.8952156715    0.4169984158   -2.3631016489
C        3.2720754991   -0.2334941801   -2.2713920192
C        2.0825007561   -0.8601563441   -1.6105092808
C        1.5256239881   -1.5411282052    4.0801702041
N        1.6946128692   -1.3163958883    2.6220756489
F        1.5865334174   -2.0194773281   -2.1867593519
H        0.1768468514    0.2390148902    0.0662659130
H        3.6992848812   -2.2553010701    0.1000618748
H        0.0011910123   -0.1125815402    2.5342412815
H        3.3932759010   -2.5170100624    2.5670537777
H        1.7212962805    1.3347521323   -1.8086863167
H        1.3737761685    0.3436004489   -3.3118736353
H        3.6440916667   -0.7357823353   -3.1587966776
H        4.0281614258    0.2397535114   -1.6517590254
H        0.9358555013   -2.4464323614    4.2368399258
H        2.5066049513   -1.6495516637    4.5410005974
H        1.0164204500   -0.6837239093    4.5176601673
22   
torsion grid (60,)
C        0.8178492342   -0.4823079331    0.5651703633
C        2.9256553228   -1.6368904549    0.6133980461
C        0.7135064403   -0.6657059595    1.9323711093
C        2.7784298669   -1.7958823454    1.9813143142
C        1.9367284537   -0.9728774578   -0.1227659580
C        2.0295248258    0.4989314207   -2.3017125798
C        3.2707740832   -0.3920221381   -2.3274482347
C        2.0350707723   -0.8282588019   -1.6113718172
C        1.5259084461   -1.5394848988    4.0805595294
N        1.6860078645   -1.3134464817    2.6216384389
F        1.2873362726   -1.8373071032   -2.2023154910
H        0.0267622765    0.0412284935    0.0384105297
H        3.8093670053   -2.0353519835    0.1261648587
H       -0.1321161561   -0.3079877334    2.5088943314
H        3.5128606265   -2.3070558148    2.5934493304
H        2.0583628069    1.4038828749   -1.7018405660
H        1.4420825083    0.5607135356   -3.2122230595
H        3.4953856000   -0.9071487882   -3.2556897854
H        4.1349015375   -0.0830467969   -1.7463339473
H        0.9842063157   -2.4737558451    4.2406382557
H        2.5098221440   -1.5942750871    4.5441162264
H        0.9714602917   -0.7073586308    4.5123529818
22   
torsion grid (75,)
C        0.7318587300   -0.6129028496    0.5444670008
C        2.9578083665   -1.5185090176    0.6205431527
C        0.6412364149   -0.7836983555    1.9119290102
C        2.8205723411   -1.6688558111    1.9910033579
C        1.9035032847   -0.9894785560   -0.1334870012
C        2.1911230700    0.5583692572   -2.2245207180
C        3.2404133609   -0.5376513250   -2.3829259482
C        1.9887365233   -0.7991576146   -1.6122471230
C        1.5325110560   -1.5223967647    4.0799686899
N        1.6777944589   -1.3044371673    2.6187785066
F        1.0291381956   -1.5909355324   -2.2270249844
H       -0.1106452354   -0.1921058938    0.0057160189
H        3.8836233094   -1.8284907305    0.1483627031
H       -0.2414567965   -0.5103112622    2.4789655354
H        3.6045530295   -2.0854228490    2.6132942183
H        2.4159977669    1.3987199342   -1.5748647676
H        1.5644370188    0.7815587271   -3.0823388759
H        3.3145950883   -1.0256844191   -3.3489873773
H        4.1790735179   -0.4266413449   -1.8482757226
H        1.0750232181   -2.4984142106    4.2534199592
H        2.5152872958   -1.4827111914    4.5473585677
H        0.9047025239   -0.7362509528    4.4976426739
22   
torsion grid (90,)
C        0.6620823837   -0.7351406427    0.5280148782
C        2.9731884570   -1.3938286609    0.6239047507
C        0.5853514162   -0.8964968417    1.8959037483
C        2.8438026891   -1.5396184798    1.9943157311
C        1.8710348757   -0.9938312130   -0.1449481931
C        2.3643657531    0.5831113194   -2.1567716898
C        3.1876341540   -0.6630410657   -2.4366664908
C        1.9451784282   -0.7636083502   -1.6096242347
C        1.5374762314   -1.5103054744    4.0790277780
N        1.6667878378   -1.2935380026    2.6168363198
F        0.8361596814   -1.3165320266   -2.2292991082
H       -0.2192439760   -0.4186354562   -0.0191467467
H        3.9315644655   -1.6118561998    0.1666012150
H       -0.3249517640   -0.7108953714    2.4547484670
H        3.6653317068   -1.8639988212    2.6229614385
H        2.7591238254    1.3228735631   -1.4674652541
H        1.7361922569    0.9673667514   -2.9544012917
H        3.1211546543   -1.0986944822   -3.4279413170
H        4.1570650987   -0.7596760446   -1.9580310116
H        1.1845282060   -2.5270377522    4.2627942486
H        2.5078758624   -1.3617923836    4.5504853844
H        0.8281842950   -0.7902322949    4.4854782548
22   
torsion grid (105,)
C        0.6062981245   -0.8317234474    0.5210053652
C        2.9723282725   -1.2578640327    0.6261927189
C        0.5424909832   -0.9984134305    1.8885963205
C        2.8535647197   -1.4147223794    1.9939609989
C        1.8372123401   -0.9690035363   -0.1502497264
C        2.5313621918    0.5746530987   -2.1162151994
C        3.1232446963   -0.7715169322   -2.4727408676
C        1.9025138213   -0.7112259121   -1.6026096215
C        1.5441752596   -1.5132452660    4.0747545928
N        1.6549045360   -1.2853117773    2.6134887632
F        0.7087003214   -1.0449256139   -2.2160954652
H       -0.3003527598   -0.6071563509   -0.0290585610
H        3.9518397411   -1.3788958399    0.1781467781
H       -0.3843959215   -0.9037113732    2.4430904076
H        3.7017461584   -1.6543462799    2.6251716323
H        3.0546396362    1.2078673242   -1.4069394181
H        1.9459737239    1.0908188545   -2.8706920979
H        2.9462300224   -1.1502338372   -3.4738531780
H        4.0738136584   -1.0613827139   -2.0366908371
H        1.2983886175   -2.5608434722    4.2599819295
H        2.4923686244   -1.2639646642    4.5490746465
H        0.7628397712   -0.8702603479    4.4784576953
22   
torsion grid (120,)
C        0.5683072128   -0.8885132322    0.5222581397
C        2.9629331914   -1.1076016489    0.6334915860
C        0.5161932396   -1.0833086688    1.8870992833
C        2.8537923990   -1.2969085291    1.9960443154
C        1.8083286798   -0.9043793813   -0.1459204068
C        2.6756230868    0.5430133096   -2.1201812851
C        3.0537060781   -0.8707709253   -2.4839291158
C        1.8639843389   -0.6318911914   -1.5911952679
C        1.5515773684   -1.5434279772    4.0699451080
N        1.6454436512   -1.2838388048    2.6131264040
F        0.6286614464   -0.7934138366   -2.1859319439
H       -0.3524611566   -0.7327872319   -0.0271919194
H        3.9530604092   -1.1283785577    0.1924941395
H       -0.4180462009   -1.0813159467    2.4373740903
H        3.7181154329   -1.4679949986    2.6275764212
H        3.2899317217    1.0938379592   -1.4149874953
H        2.1628603196    1.1412173207   -2.8667587501
H        2.8021112165   -1.2179650119   -3.4806049585
H        3.9483410884   -1.3129640916   -2.0571957395
H        1.4055247359   -2.6121788970    4.2392179774
H        2.4702060712   -1.2125822689    4.5526321984
H        0.7116922084   -0.9832553193    4.4794140957
22   
torsion grid (135,)
C        0.5477671999   -0.9205320660    0.5240504357
C        2.9514856278   -0.9514433014    0.6498554110
C        0.5042770276   -1.1569457072    1.8829761048
C        2.8499162243   -1.1867464350    2.0048729135
C        1.7885363833   -0.8140641386   -0.1338137662
C        2.7962128780    0.4975148272   -2.1503040840
C        2.9769597459   -0.9599920208   -2.4751346466
C        1.8369242640   -0.5329927436   -1.5755851193
C        1.5589432236   -1.5895753558    4.0623191355
N        1.6404324423   -1.2864699073    2.6133100671
F        0.5844207543   -0.5553442767   -2.1511841908
H       -0.3792764887   -0.8206859555   -0.0273802387
H        3.9435018624   -0.8786226893    0.2182051718
H       -0.4307143336   -1.2471223789    2.4245488166
H        3.7215096157   -1.3027949807    2.6388492982
H        3.4836647516    0.9862583205   -1.4669991341
H        2.3617584628    1.1362224053   -2.9125992606
H        2.6655611681   -1.2998354234   -3.4575643494
H        3.8001005623   -1.5143087441   -2.0353206690
H        1.4948141474   -2.6703239314    4.2041005589
H        2.4467211740   -1.2015081666    4.5599024139
H        0.6763698456   -1.1060952604    4.4796720082
22   
torsion grid (150,)
C        0.5450029997   -0.9385177803    0.5208964137
C        2.9433595168   -0.7939561652    0.6777386511
C        0.5039199224   -1.2219640370    1.8708553860
C        2.8437548282   -1.0809592471    2.0227496359
C        1.7811544589   -0.7120855154   -0.1150901013
C        2.8978022767    0.4382209552   -2.1922833223
C        2.8872628567   -1.0407769019   -2.4548298238
C        1.8265515671   -0.4246869831   -1.5551363035
C        1.5644539599   -1.6431038546    4.0497642602
N        1.6384608183   -1.2893203320    2.6119045523
F        0.5682347533   -0.3220432391   -2.1060024427
H       -0.3808802991   -0.8872785007   -0.0391162974
H        3.9320517156   -0.6327288736    0.2627473024
H       -0.4274534013   -1.4023854877    2.3958537343
H        3.7142753843   -1.1507489903    2.6649243171
H        3.6578976595    0.8694348381   -1.5483149841
H        2.5343378349    1.0918213883   -2.9786350217
H        2.5141778435   -1.3817141860   -3.4153096339
H        3.6364198897   -1.6771503644   -1.9943079265
H        1.5845793513   -2.7294671353    4.1578607009
H        2.4128749471   -1.2019420348    4.5712327459
H        0.6416476550   -1.2440554827    4.4692750340
22   
torsion grid (165,)
C        0.5589372508   -0.9591212099    0.5097390487
C        2.9357349086   -0.6395023939    0.7160536223
C        0.5166253454   -1.2875812790    1.8490430203
C        2.8363705041   -0.9760108746    2.0501998240
C        1.7841668764   -0.6147892957   -0.0946067037
C        2.9837716939    0.3651631749   -2.2332637082
C        2.7802358093   -1.1091021986   -2.4324500939
C        1.8318877849   -0.3178902959   -1.5340291879
C        1.5692366070   -1.6928043426    4.0350851389
N        1.6408958444   -1.2920561129    2.6093829383
F        0.5800543654   -0.0855880578   -2.0597925918
H       -0.3593173542   -0.9573968722   -0.0653664280
H        3.9153973431   -0.3889498969    0.3252880330
H       -0.4063739377   -1.5571082827    2.3500584307
H        3.6986689739   -0.9979503141    2.7067863220
H        3.8185731074    0.7203745058   -1.6374337644
H        2.6852277560    1.0269731311   -3.0397790347
H        2.3399440359   -1.4403675928   -3.3676939490
H        3.4553493762   -1.8129279811   -1.9560100602
H        1.6692391678   -2.7773555933    4.1127501744
H        2.3731601810   -1.2051012921    4.5848461256
H        0.6121008990   -1.3763148552    4.4479697203
22   
torsion grid (180,)
C        0.5945150812   -1.0063965925    0.4895720051
C        2.9274422971   -0.4824267682    0.7623047658
C        0.5490567153   -1.3701986113    1.8187012262
C        2.8271687625   -0.8598966845    2.0872925738
C        1.7986130998   -0.5383873049   -0.0743125139
C        3.0536100398    0.2805782411   -2.2628893519
C        2.6492739692   -1.1581877443   -2.4244979634
C        1.8492939535   -0.2257435590   -1.5141136060
C        1.5758051756   -1.7302637428    4.0222233356
N        1.6527577152   -1.2939830715    2.6070455298
F        0.6169226418    0.1510887173   -2.0029311164
H       -0.3070669828   -1.0692572238   -0.1088104408
H        3.8869394867   -0.1299751548    0.4020119130
H       -0.3566505258   -1.7345697519    2.2905615342
H        3.6714250644   -0.8174708036    2.7658940722
H        3.9557428504    0.5243388840   -1.7110622668
H        2.8224989210    0.9617812324   -3.0753080074
H        2.1350068530   -1.4442453466   -3.3369012739
H        3.2461436034   -1.9346657244   -1.9568627006
H        1.6815156862   -2.8158026046    4.0730945046
H        2.3749391373   -1.2533813765    4.5877381621
H        0.6149329938   -1.4283429394    4.4380264955
