15   
torsion grid (-165,)
C       -0.1196985356    0.0119337823   -1.2285407958
C       -0.6377138603   -0.7160133220   -0.2276356362
C        0.8407405501    1.1368839631   -0.9338066362
C        0.8724639632    0.3169055658    1.3388301892
N       -0.3079216203   -0.5446303333    1.1340202142
N        0.7498436949    1.4892676000    0.4925846796
O       -1.5492623355   -1.7197518715   -0.4610077656
H       -0.4855187098   -0.1389722510   -2.2378200089
H        1.8711879160    0.8672352791   -1.2343927633
H        0.5603246410    2.0224205363   -1.5160557880
H        0.8941523064    0.6317745514    2.3866312858
H        1.7933515786   -0.2650421609    1.1273237023
H       -0.1297024696   -1.4533090620    1.5613530276
H        1.4729509698    2.1592454592    0.7404400542
H       -1.9675318615   -1.9494460174    0.3849126155
15   
torsion grid (-150,)
C       -0.1231223677    0.0069770264   -1.2246091419
C       -0.6128881723   -0.7399518008   -0.2244081721
C        0.8329911843    1.1363375897   -0.9321121405
C        0.8813048471    0.3168840477    1.3424737644
N       -0.2848334264   -0.5618484803    1.1355713715
N        0.7433228087    1.4876050629    0.4947650506
O       -1.4954368598   -1.7730625102   -0.4488669184
H       -0.4944233472   -0.1458518747   -2.2314515371
H        1.8635767796    0.8713877121   -1.2359917783
H        0.5464331233    2.0202373608   -1.5136488430
H        0.8975573570    0.6336493481    2.3898388931
H        1.8110778003   -0.2514461939    1.1331273774
H       -0.1063685972   -1.4689719971    1.5646533711
H        1.4606406833    2.1649615124    0.7395009006
H       -2.0621655854   -1.8484050840    0.3379941772
15   
torsion grid (-135,)
C       -0.1244889096   -0.0020953424   -1.2138834446
C       -0.5871171884   -0.7634923729   -0.2120208311
C        0.8194818505    1.1394968634   -0.9291573583
C        0.8961821457    0.3151877089    1.3458636791
N       -0.2654211531   -0.5683747961    1.1454741579
N        0.7434928290    1.4867328787    0.4996359426
O       -1.4481536366   -1.8196000814   -0.4277894867
H       -0.4911910207   -0.1693669249   -2.2200662470
H        1.8485522771    0.8879515742   -1.2485873740
H        0.5137601272    2.0208020778   -1.5050831968
H        0.9186306692    0.6319788297    2.3931134443
H        1.8284598723   -0.2461201227    1.1288930561
H       -0.1032994155   -1.4696001806    1.5916350360
H        1.4606706856    2.1668339454    0.7370277522
H       -2.1518929053   -1.7618323381    0.2417812451
15   
torsion grid (-120,)
C       -0.1261905235   -0.0139900966   -1.1981063779
C       -0.5672206438   -0.7823131641   -0.1916086133
C        0.8030170436    1.1427244913   -0.9251528789
C        0.9148479970    0.3136398910    1.3494268343
N       -0.2466127655   -0.5692862668    1.1613885194
N        0.7467317222    1.4863289843    0.5053070749
O       -1.4124375826   -1.8576050211   -0.3955096598
H       -0.4836554082   -0.2007341969   -2.2042188794
H        1.8290307330    0.9054097765   -1.2644434189
H        0.4751012050    2.0207604320   -1.4941649048
H        0.9493945418    0.6306311538    2.3962610964
H        1.8467238313   -0.2434331865    1.1200415791
H       -0.1071943686   -1.4628186672    1.6285855116
H        1.4646438247    2.1690216839    0.7325729349
H       -2.2285133791   -1.6898340943    0.1064575568
15   
torsion grid (-105,)
C       -0.1271284862   -0.0278553011   -1.1781345515
C       -0.5572097558   -0.7931103621   -0.1638155132
C        0.7833941492    1.1472672432   -0.9200312124
C        0.9359977732    0.3112259620    1.3521628634
N       -0.2329967025   -0.5618202045    1.1829792421
N        0.7547254017    1.4865568890    0.5121687667
O       -1.3880449395   -1.8865984021   -0.3506885893
H       -0.4682904632   -0.2390746299   -2.1852045151
H        1.8043541753    0.9276463600   -1.2852496257
H        0.4277779783    2.0214753505   -1.4788322784
H        0.9915380449    0.6269061667    2.3983974845
H        1.8614495917   -0.2482543901    1.1033346967
H       -0.1233563812   -1.4456585121    1.6744394004
H        1.4772699410    2.1683864216    0.7266297281
H       -2.2818140996   -1.6385908718   -0.0613195216
15   
torsion grid (-90,)
C       -0.1308843348   -0.0402807736   -1.1566671177
C       -0.5580694386   -0.7952444369   -0.1320119607
C        0.7633834715    1.1511123795   -0.9147443165
C        0.9570403534    0.3088091835    1.3535648322
N       -0.2240205193   -0.5484186799    1.2066871883
N        0.7659438883    1.4872013155    0.5184170297
O       -1.3764957968   -1.9043668639   -0.2947492766
H       -0.4549568490   -0.2754710881   -2.1643031368
H        1.7776186181    0.9465324771   -1.3062284305
H        0.3822648217    2.0219205016   -1.4626729156
H        1.0380254711    0.6221568892    2.3987092549
H        1.8718130619   -0.2579888481    1.0826760656
H       -0.1486729230   -1.4196935608    1.7249292859
H        1.4955527813    2.1656047545    0.7188850954
H       -2.3008763784   -1.6133715304   -0.2456552232
15   
torsion grid (-75,)
C       -0.1384936169   -0.0487092044   -1.1348701964
C       -0.5683305095   -0.7897815858   -0.0995058514
C        0.7429798797    1.1557667590   -0.9095984193
C        0.9757364690    0.3048979576    1.3545061007
N       -0.2210252280   -0.5308564510    1.2304476373
N        0.7816536928    1.4875439521    0.5244430497
O       -1.3777041006   -1.9088177987   -0.2335271194
H       -0.4467313558   -0.3040312986   -2.1428466285
H        1.7481689032    0.9642648828   -1.3299784859
H        0.3379940929    2.0255437913   -1.4424999898
H        1.0828223158    0.6157425238    2.3978970371
H        1.8760023413   -0.2744013278    1.0625499262
H       -0.1787838097   -1.3894066762    1.7720939574
H        1.5237688463    2.1568172039    0.7090254782
H       -2.2803916931   -1.6160710088   -0.4313001212
15   
torsion grid (-60,)
C       -0.1528875277   -0.0512313829   -1.1156257101
C       -0.5839702636   -0.7797919399   -0.0699106635
C        0.7265412961    1.1579979487   -0.9055183886
C        0.9906501120    0.3014363367    1.3545324624
N       -0.2206057465   -0.5135458868    1.2509222553
N        0.7971838991    1.4872676351    0.5282294150
O       -1.3917300645   -1.9002267592   -0.1741269672
H       -0.4549963413   -0.3186011500   -2.1226878737
H        1.7228531167    0.9707823609   -1.3483639957
H        0.3079911928    2.0289046281   -1.4264515952
H        1.1206406435    0.6098472838    2.3959206561
H        1.8766711674   -0.2907650412    1.0455853248
H       -0.2084591211   -1.3577977784    1.8151207357
H        1.5511111478    2.1469444790    0.6987676471
H       -2.2233272832   -1.6427190148   -0.5995569278
15   
torsion grid (-45,)
C       -0.1737670879   -0.0478917703   -1.0995252709
C       -0.6022475721   -0.7677489905   -0.0450943559
C        0.7163516529    1.1561696263   -0.9028056649
C        1.0003004988    0.3001499862    1.3552662874
N       -0.2214798646   -0.5000959368    1.2685186421
N        0.8090697233    1.4865584568    0.5295405472
O       -1.4195467233   -1.8787680083   -0.1227532208
H       -0.4861513259   -0.3139535370   -2.1042782757
H        1.7059591082    0.9616987968   -1.3576488424
H        0.2977720647    2.0301609611   -1.4185912064
H        1.1458969749    0.6089096924    2.3944442468
H        1.8759598322   -0.3023710177    1.0369238203
H       -0.2205836621   -1.3373512208    1.8429374319
H        1.5719438029    2.1386005509    0.6892328596
H       -2.1418111947   -1.6855658700   -0.7393306238
15   
torsion grid (-30,)
C       -0.1996290587   -0.0379639725   -1.0861810012
C       -0.6210028683   -0.7544057924   -0.0255109586
C        0.7110839868    1.1527167863   -0.9011226635
C        1.0053405759    0.3002390566    1.3561928567
N       -0.2249978507   -0.4887096466    1.2830197294
N        0.8188656805    1.4860775199    0.5293642540
O       -1.4562830790   -1.8486564686   -0.0824815197
H       -0.5301143017   -0.2955815148   -2.0878229879
H        1.6950960118    0.9428116747   -1.3615534925
H        0.3017655780    2.0313406846   -1.4162974738
H        1.1622812506    0.6100065962    2.3934130833
H        1.8726452395   -0.3115973601    1.0326461416
H       -0.2231165757   -1.3251368136    1.8587419788
H        1.5895284340    2.1308843700    0.6809861805
H       -2.0437967957   -1.7435234006   -0.8465577528
15   
torsion grid (-15,)
C       -0.1289846334   -0.1082028349   -1.0987319708
C       -0.6409162636   -0.7377832203   -0.0223535967
C        0.8076491799    1.0651657573   -0.9326390025
C        0.9008747659    0.3909961936    1.3992215081
N       -0.3360340963   -0.3843509920    1.2897138927
N        0.8078589679    1.5102042728    0.4710589311
O       -1.5123902826   -1.8008707513   -0.0560329280
H       -0.4109034085   -0.4156295071   -2.1015944653
H        1.8192738581    0.7923716324   -1.2888118024
H        0.4721516186    1.9096477991   -1.5480796069
H        0.9811273650    0.7791055959    2.4187612064
H        1.7783298911   -0.2574657735    1.1964048611
H       -0.3824188084   -1.1810196083    1.9178953057
H        1.5789929852    2.1515800835    0.6345952846
H       -1.8769449116   -1.8652469278   -0.9525712425
15   
torsion grid (0,)
C       -0.1542203501   -0.0907601054   -1.0968446680
C       -0.6578465161   -0.7234099168   -0.0182811728
C        0.8120452346    1.0586453974   -0.9323972028
C        0.8994230760    0.3938091464    1.4004499010
N       -0.3384798305   -0.3814316727    1.2934457484
N        0.8130034301    1.5100534715    0.4690588192
O       -1.5620657378   -1.7579344716   -0.0463699604
H       -0.4758034040   -0.3665103754   -2.0971122358
H        1.8202237701    0.7628417581   -1.2802420198
H        0.4981812478    1.9066270815   -1.5538801386
H        0.9792920280    0.7848383678    2.4190105646
H        1.7759266255   -0.2576446636    1.2021806829
H       -0.3694839162   -1.1875977646    1.9106094747
H        1.5885563765    2.1465286789    0.6312867560
H       -1.7710858064   -1.9495532123   -0.9740781741
15   
torsion grid (15,)
C       -0.1773650901   -0.0701082791   -1.0989898785
C       -0.6730359593   -0.7089130758   -0.0207230344
C        0.8179717103    1.0540033016   -0.9327290495
C        0.8969503503    0.3957041762    1.4008774895
N       -0.3401050174   -0.3813463090    1.2912093291
N        0.8184703567    1.5099929045    0.4671723295
O       -1.6109226301   -1.7150026581   -0.0489554974
H       -0.5372989926   -0.3116735785   -2.0947871832
H        1.8222543937    0.7353396004   -1.2717236285
H        0.5268241055    1.9058447220   -1.5594143620
H        0.9730424747    0.7888302928    2.4190565818
H        1.7739154641   -0.2573652103    1.2091219042
H       -0.3607923967   -1.1963193662    1.8971568608
H        1.5984169014    2.1410973645    0.6298133240
H       -1.6706594431   -2.0415821659   -0.9602488109
15   
torsion grid (30,)
C       -0.1948605451   -0.0483468667   -1.1047958297
C       -0.6860742528   -0.6933707558   -0.0289510221
C        0.8226759508    1.0550233803   -0.9339267711
C        0.8946118855    0.3936168808    1.3997709839
N       -0.3437039601   -0.3799686349    1.2833570554
N        0.8273028064    1.5090697098    0.4667308929
O       -1.6555542306   -1.6741975005   -0.0638339235
H       -0.5825630309   -0.2624190890   -2.0959697876
H        1.8222124496    0.7203609663   -1.2714559097
H        0.5469175600    1.9123846198   -1.5596987169
H        0.9678506810    0.7861302348    2.4185115373
H        1.7699601589   -0.2632817341    1.2128511941
H       -0.3690964031   -1.1985904838    1.8837673498
H        1.6137500937    2.1316688925    0.6310468449
H       -1.5757629360   -2.1395779004   -0.9105675234
15   
torsion grid (45,)
C       -0.2084754238   -0.0238140070   -1.1121906848
C       -0.6993204830   -0.6769461715   -0.0422523988
C        0.8258074624    1.0627106017   -0.9348377422
C        0.8921547128    0.3874261691    1.3954672106
N       -0.3522488623   -0.3750940843    1.2724614036
N        0.8367525408    1.5085722026    0.4682952782
O       -1.6927779530   -1.6387462888   -0.0912132401
H       -0.6069166111   -0.2231707458   -2.1016295326
H        1.8200244354    0.7152166073   -1.2750984453
H        0.5622410867    1.9270585612   -1.5560708587
H        0.9679501486    0.7738946546    2.4163900569
H        1.7621390839   -0.2762107584    1.2063776492
H       -0.3895471582   -1.1952338789    1.8698680640
H        1.6298907691    2.1218005219    0.6356713595
H       -1.4900075210   -2.2389616647   -0.8244017451
15   
torsion grid (60,)
C       -0.2133179149   -0.0020825709   -1.1220871837
C       -0.7114188856   -0.6602584750   -0.0599112718
C        0.8262662990    1.0775953565   -0.9358520994
C        0.8897917755    0.3757225976    1.3881914182
N       -0.3647526169   -0.3675132749    1.2583566232
N        0.8479012690    1.5072498022    0.4721811161
O       -1.7202953112   -1.6096184683   -0.1313551861
H       -0.6081172721   -0.1980476501   -2.1132075017
H        1.8159302616    0.7285710595   -1.2874613078
H        0.5633620751    1.9503165713   -1.5457028610
H        0.9728482694    0.7508104793    2.4128005379
H        1.7507824008   -0.2973512928    1.1904463007
H       -0.4253360140   -1.1836048114    1.8588987882
H        1.6499376700    2.1076664361    0.6433970004
H       -1.4159157783   -2.3309540402   -0.7018579987
15   
torsion grid (75,)
C       -0.2098853788    0.0155446649   -1.1343290572
C       -0.7226913134   -0.6440294010   -0.0812362262
C        0.8263006116    1.0960887133   -0.9366039240
C        0.8878452750    0.3599202233    1.3780773209
N       -0.3783218087   -0.3608138642    1.2416867045
N        0.8570816385    1.5042253801    0.4772801196
O       -1.7371966195   -1.5876430320   -0.1841369022
H       -0.5910625046   -0.1854555051   -2.1294030251
H        1.8130955535    0.7524373501   -1.3013059975
H        0.5588114265    1.9775908446   -1.5319207178
H        0.9810685718    0.7197381547    2.4072033007
H        1.7384046582   -0.3223338506    1.1662809158
H       -0.4666162482   -1.1696228763    1.8481108866
H        1.6633196492    2.0967222748    0.6552893683
H       -1.3624872837   -2.4038673576   -0.5481563917
15   
torsion grid (90,)
C       -0.1980585179    0.0270339088   -1.1481506833
C       -0.7292957109   -0.6327698159   -0.1052410448
C        0.8241143579    1.1176958513   -0.9368963024
C        0.8854611278    0.3418756833    1.3657968059
N       -0.3922796626   -0.3565834170    1.2236320158
N        0.8633699722    1.5010992986    0.4836372008
O       -1.7403504846   -1.5744373327   -0.2436976449
H       -0.5553357551   -0.1861794208   -2.1492927947
H        1.8103004114    0.7895085565   -1.3169479955
H        0.5433897941    2.0070743150   -1.5146076592
H        0.9893493506    0.6833179442    2.4000514666
H        1.7254023636   -0.3479523845    1.1366426068
H       -0.5029901584   -1.1582613185    1.8356415540
H        1.6739274138    2.0852289830    0.6690153592
H       -1.3393382745   -2.4481491323   -0.3727465098
15   
torsion grid (105,)
C       -0.1808553874    0.0328150096   -1.1631521989
C       -0.7280464572   -0.6300489002   -0.1308352402
C        0.8220640417    1.1376318315   -0.9369439950
C        0.8833754323    0.3252905650    1.3532830800
N       -0.4008875658   -0.3604915063    1.2043100961
N        0.8637095043    1.4983247412    0.4896080915
O       -1.7315780762   -1.5699902863   -0.3036778915
H       -0.5134540483   -0.1914777961   -2.1701822209
H        1.8105021843    0.8295112482   -1.3274951093
H        0.5261096082    2.0324818612   -1.4988307732
H        0.9926963511    0.6494085264    2.3924631090
H        1.7176501461   -0.3661264430    1.1092667299
H       -0.5218531844   -1.1585294647    1.8193554103
H        1.6749553448    2.0786792113    0.6834088199
H       -1.3567216662   -2.4589768786   -0.1937415329
15   
torsion grid (120,)
C       -0.1634909129    0.0349648477   -1.1786076191
C       -0.7179150244   -0.6371645463   -0.1560105073
C        0.8218976284    1.1516262360   -0.9369077257
C        0.8820188877    0.3138144297    1.3426860329
N       -0.3998480800   -0.3764373615    1.1850405282
N        0.8545196949    1.4971996311    0.4940451031
O       -1.7151312758   -1.5725871209   -0.3574979543
H       -0.4798017580   -0.1923456060   -2.1900988438
H        1.8157575397    0.8598158555   -1.3262397732
H        0.5177341934    2.0492095277   -1.4900960734
H        0.9877188829    0.6253894491    2.3860739042
H        1.7200399422   -0.3696858766    1.0904533888
H       -0.5101343970   -1.1794906107    1.7962345421
H        1.6609397845    2.0812620325    0.6970291442
H       -1.4166388782   -2.4370691682   -0.0292677722
15   
torsion grid (135,)
C       -0.1436762776    0.0318294874   -1.1919162388
C       -0.7014059119   -0.6506730874   -0.1778559090
C        0.8244994399    1.1600745883   -0.9368454936
C        0.8797485860    0.3073588873    1.3344333238
N       -0.3963910408   -0.3971759745    1.1704330243
N        0.8404138009    1.4961614835    0.4962948764
O       -1.6928376972   -1.5821248266   -0.4032418937
H       -0.4499158435   -0.1934113330   -2.2069793783
H        1.8259397501    0.8854258168   -1.3192108896
H        0.5118390693    2.0568847296   -1.4866290301
H        0.9792871483    0.6105775947    2.3808483821
H        1.7244491161   -0.3659520864    1.0780954709
H       -0.4674206154   -1.2192922133    1.7639245548
H        1.6343317615    2.0928271585    0.7111837861
H       -1.5111950583   -2.3840085058    0.1143017893
15   
torsion grid (150,)
C       -0.1253488551    0.0246316697   -1.2033012478
C       -0.6839245425   -0.6669114956   -0.1958036646
C        0.8298564044    1.1607397099   -0.9364996849
C        0.8765177658    0.3070474808    1.3302046534
N       -0.3854685507   -0.4278986687    1.1597118392
N        0.8188224453    1.4959582848    0.4965092303
O       -1.6681443423   -1.5985828040   -0.4384443972
H       -0.4355264582   -0.1876866856   -2.2200758359
H        1.8410078270    0.8988176606   -1.3019014708
H        0.5147101738    2.0536980245   -1.4909429531
H        0.9630145489    0.6081640987    2.3784184613
H        1.7352453404   -0.3493509793    1.0773289362
H       -0.3871965935   -1.2801044804    1.7168844885
H        1.5955787964    2.1103492365    0.7237466986
H       -1.6314777325   -2.3003693328    0.2310013212
15   
torsion grid (165,)
C       -0.1159827238    0.0182697082   -1.2148636128
C       -0.6690065624   -0.6817627099   -0.2105768905
C        0.8373083485    1.1529696209   -0.9357981779
C        0.8728954036    0.3108747862    1.3304753463
N       -0.3635246463   -0.4700282574    1.1501222817
N        0.7903617034    1.4948884179    0.4947784705
O       -1.6392502492   -1.6251675036   -0.4588931963
H       -0.4447140610   -0.1704207231   -2.2306120712
H        1.8584209302    0.8912427745   -1.2729241510
H        0.5342766050    2.0420659080   -1.5023801404
H        0.9381438016    0.6150638214    2.3794017863
H        1.7535422655   -0.3201118908    1.0889888083
H       -0.2835304189   -1.3522822662    1.6549014946
H        1.5443951296    2.1328832376    0.7336465645
H       -1.7556692984   -2.1899832047    0.3205698623
15   
torsion grid (180,)
C       -0.1159222030    0.0147604304   -1.2243963527
C       -0.6561520953   -0.6966852451   -0.2220937572
C        0.8423827809    1.1427528905   -0.9346651222
C        0.8705064669    0.3151022263    1.3338549433
N       -0.3350203979   -0.5130804669    1.1401101281
N        0.7643775811    1.4925574882    0.4928796579
O       -1.5997580608   -1.6675941100   -0.4652815512
H       -0.4673804425   -0.1486653632   -2.2369300363
H        1.8703304598    0.8744484147   -1.2450092619
H        0.5565258071    2.0294129565   -1.5130146537
H        0.9114595464    0.6244031306    2.3826104589
H        1.7743063697   -0.2881034896    1.1080371328
H       -0.1891668112   -1.4145486279    1.5946565716
H        1.4985313887    2.1508594956    0.7391728273
H       -1.8673541624   -2.0671180111    0.3769053899
