15   
torsion grid (-165,)
C        0.2807552709    2.2176696853   -1.2004808636
C       -0.2502261909    1.0579704667   -1.7232397000
C       -0.2779162510   -0.3186295845   -1.1318454363
N        0.1513518527    3.3070303779   -2.0263109665
N       -0.4206677516    3.0777748237   -3.1374855344
N       -0.1785256528   -1.5794522238    0.9570994317
N        0.0098800243   -0.2726086935    0.3583667184
S       -0.8937294659    1.4014504830   -3.2747131658
H        0.7767526896    2.3677605192   -0.2460579361
H       -1.2516208085   -0.8037270429   -1.2199779481
H        0.4814344302   -0.9720163711   -1.5718163554
H       -0.0630941904   -1.4853220440    1.9685579892
H        0.5581549973   -2.1935321452    0.6052601354
H        0.9437327011    0.1355712538    0.5207922763
H       -0.6756395720    0.3596081576    0.7924780213
15   
torsion grid (-150,)
C        0.4106442039    2.2188739867   -1.2860746477
C       -0.2525427964    1.0921727721   -1.7254229740
C       -0.2163222092   -0.2961133324   -1.1628296722
N        0.1943579100    3.3278902472   -2.0640138797
N       -0.5595304241    3.1400537743   -3.0728968893
N       -0.1833011226   -1.5851169601    0.9154551749
N       -0.0595786863   -0.2561935371    0.3504232129
S       -1.1182357975    1.4925023861   -3.1498732925
H        1.0727191489    2.3240047289   -0.4315431953
H       -1.1340013095   -0.8583582557   -1.3394709461
H        0.6304072926   -0.8752407867   -1.5435778032
H       -0.1624684636   -1.5016405991    1.9341595019
H        0.6301213835   -2.1278955123    0.6201387940
H        0.8162025861    0.2284500936    0.5997363296
H       -0.8310103086    0.3087856078    0.7297466400
15   
torsion grid (-135,)
C        0.5182863153    2.1761318142   -1.3835891751
C       -0.2559256835    1.0830010727   -1.7162216195
C       -0.1675556981   -0.3082509272   -1.1697230203
N        0.2263089050    3.3032925188   -2.1054346914
N       -0.6889325776    3.1576496627   -2.9830505948
N       -0.1795684177   -1.6106865436    0.9070802312
N       -0.1412866587   -0.2717692544    0.3559221631
S       -1.3164682530    1.5390751242   -2.9836200794
H        1.3219306742    2.2314422842   -0.6547531750
H       -1.0203724100   -0.9364250496   -1.4269312441
H        0.7509761714   -0.8167054950   -1.4770049605
H       -0.2534101285   -1.5363502373    1.9239617702
H        0.7046932794   -2.0689656607    0.6804629164
H        0.6552553377    0.2995618003    0.6777016274
H       -0.9937388416    0.2111930850    0.6692194406
15   
torsion grid (-120,)
C        0.6061297799    2.1476478190   -1.4874633384
C       -0.2432348815    1.0814214099   -1.7063509034
C       -0.1059897873   -0.3077852724   -1.1696958100
N        0.2404793605    3.2918012398   -2.1435640050
N       -0.8059275999    3.1860110899   -2.8684836281
N       -0.1990964749   -1.6242789788    0.9030896582
N       -0.2063681318   -0.2834991764    0.3571340954
S       -1.4730955739    1.5849010663   -2.7903082840
H        1.5157238992    2.1599510674   -0.8936725370
H       -0.8875553225   -0.9921503310   -1.4987257535
H        0.8692380544   -0.7448330748   -1.4005348635
H       -0.3591901287   -1.5617570988    1.9107592116
H        0.7287087065   -2.0220400831    0.7478132898
H        0.5203663945    0.3421687098    0.7394547135
H       -1.1117007976    0.1394809155    0.6008849352
15   
torsion grid (-105,)
C        0.6380378534    1.8237677170   -2.1228414307
C       -0.4768449239    1.1259547573   -1.6988358409
C       -0.4996548694   -0.2430528869   -1.1025063383
N        0.3493326421    3.0288067754   -2.7031846327
N       -0.8942428207    3.3061859381   -2.7864070732
N        1.1837704104    0.2794970198    0.6244378667
N       -0.1613382733   -0.2051295926    0.3949997411
S       -1.8732655986    2.0323501750   -2.1196944932
H        1.6712070066    1.4962054412   -2.0672218789
H       -1.4769824122   -0.7245409545   -1.1727269106
H        0.2618418635   -0.8895879239   -1.5421905069
H        1.3928971324    0.1684487587    1.6191141458
H        1.1857505121    1.2774973889    0.4051843704
H       -0.8889006339    0.3315194788    0.8951105549
H       -0.1944673491   -1.1699426659    0.7483061866
15   
torsion grid (-90,)
C        0.6457840975    1.7721081306   -2.2488196594
C       -0.4381512957    1.1164782994   -1.7003594479
C       -0.4365176674   -0.2576712856   -1.1192332701
N        0.3501026373    3.0184698754   -2.7325929523
N       -0.8670575004    3.3745589834   -2.6145216948
N        1.1340707376    0.3083419298    0.6875586378
N       -0.1863526335   -0.2085508132    0.3947497790
S       -1.8236572195    2.1193170840   -1.8590735420
H        1.6569378119    1.3894376999   -2.3434551136
H       -1.3876218971   -0.7792304826   -1.2469499888
H        0.3758859873   -0.8663722953   -1.5188384987
H        1.2719854844    0.2690203799    1.6998174064
H        1.1449345129    1.2880791287    0.3967455655
H       -0.9524951137    0.3154318143    0.8486347990
H       -0.2152521017   -1.1712845164    0.7541381428
15   
torsion grid (-75,)
C        0.6201227600    1.7151547242   -2.3951851546
C       -0.4031381956    1.1036246432   -1.7026310258
C       -0.3734727698   -0.2733511821   -1.1297066661
N        0.3210813737    2.9877776448   -2.8075010187
N       -0.8318146315    3.4126120902   -2.4916010943
N        1.0682919253    0.3364561889    0.7603520168
N       -0.2184406908   -0.2179472383    0.3943915154
S       -1.7384890367    2.1810296510   -1.6102752724
H        1.5860086819    1.2864800451   -2.6411392132
H       -1.2932076655   -0.8340225599   -1.3148473674
H        0.4861772603   -0.8425133776   -1.4856462285
H        1.1306700120    0.3489283613    1.7805992499
H        1.0884891166    1.3004293945    0.4209423734
H       -1.0247696821    0.2860174831    0.7989500438
H       -0.2411895798   -1.1802629868    0.7554177568
15   
torsion grid (-60,)
C        0.5728842640    1.6727669681   -2.5438027645
C       -0.3554290229    1.1112327774   -1.6960457435
C       -0.2972936674   -0.2703338771   -1.1330913735
N        0.2779219238    2.9648589375   -2.8993031840
N       -0.7706767880    3.4568793302   -2.3960773051
N        1.0064776505    0.3630268170    0.8422889483
N       -0.2383848348   -0.2267021472    0.3939210980
S       -1.5940958802    2.2560721125   -1.3669546853
H        1.4651448821    1.1993278235   -2.9390137108
H       -1.1827658891   -0.8641567044   -1.3778239270
H        0.6030626688   -0.7991713721   -1.4477406669
H        1.0018073441    0.3760361995    1.8643415329
H        1.0224525368    1.3277164862    0.5045855680
H       -1.0833213519    0.2481891126    0.7529664439
H       -0.2527747295   -1.1928481861    0.7450307702
15   
torsion grid (-45,)
C        0.4970796973    1.6351724886   -2.6889054577
C       -0.2990512554    1.1319959978   -1.6861333071
C       -0.2106208804   -0.2529511043   -1.1279336949
N        0.2089078332    2.9385792511   -3.0104882691
N       -0.7017869271    3.4977653607   -2.3482408176
N        0.9471473335    0.3787114284    0.9367211931
N       -0.2497638064   -0.2347252622    0.3953845270
S       -1.3988848307    2.3408775284   -1.1567075522
H        1.2870528794    1.1152713044   -3.2195613537
H       -1.0564809069   -0.8764329648   -1.4350466000
H        0.7263685209   -0.7413005047   -1.3977924344
H        0.8796289411    0.3586459811    1.9565030995
H        0.9505110537    1.3546345191    0.6324264900
H       -1.1298735897    0.2080215936    0.7090989073
H       -0.2582604080   -1.2079141735    0.7266347235
15   
torsion grid (-30,)
C        0.3847984216    1.5960257472   -2.8145078595
C       -0.2463392520    1.1578691915   -1.6737415379
C       -0.1212412407   -0.2273325136   -1.1128839638
N        0.1027667965    2.9045624382   -3.1210489251
N       -0.6484297455    3.5302700339   -2.3393741995
N        0.8897228006    0.3781301908    1.0367437294
N       -0.2587222104   -0.2394728866    0.4000940349
S       -1.1787663784    2.4274712987   -0.9915955628
H        1.0472431980    1.0272265884   -3.4573609926
H       -0.9152542146   -0.8843214782   -1.4833883299
H        0.8525420901   -0.6687039532   -1.3292465333
H        0.7629161555    0.3094462062    2.0488545877
H        0.8828319820    1.3674487781    0.7790212671
H       -1.1659069276    0.1804084494    0.6654990602
H       -0.2714771645   -1.2202098812    0.7080248733
15   
torsion grid (-15,)
C        0.2617536444    1.5601583645   -2.9101271017
C       -0.1871676141    1.1818890213   -1.6660757445
C       -0.0187859339   -0.1994023447   -1.0975282042
N       -0.0154531017    2.8709756347   -3.2096424720
N       -0.6056393438    3.5522527379   -2.3439261660
N        0.8384461692    0.3556751803    1.1338064400
N       -0.2615232195   -0.2439842811    0.3989347769
S       -0.9428868272    2.5082160733   -0.8830057320
H        0.7853331341    0.9463593886   -3.6344872945
H       -0.7435128729   -0.8946787780   -1.5334997184
H        0.9918033495   -0.5840693980   -1.2450734894
H        0.6417213236    0.2513972442    2.1317632579
H        0.8438664414    1.3537529839    0.9116919841
H       -1.1865949413    0.1680040382    0.6100327476
H       -0.2927762403   -1.2317781819    0.6817993058
15   
torsion grid (0,)
C        0.1477788958    1.5200087476   -2.9875808491
C       -0.1116728277    1.2041011025   -1.6736675219
C        0.0871253130   -0.1696599924   -1.0925942247
N       -0.1085493593    2.8340499505   -3.2890180852
N       -0.5288274724    3.5704989216   -2.3706743224
N        0.7801951779    0.3216208011    1.2128102534
N       -0.2682736209   -0.2429870731    0.3800998360
S       -0.6739694305    2.5913621113   -0.8363610840
H        0.5150893070    0.8569643394   -3.7628929014
H       -0.5566811435   -0.8988715073   -1.5929906195
H        1.1266856727   -0.4988058998   -1.1547148084
H        0.5049190026    0.1954452951    2.1895820860
H        0.8181188903    1.3249768617    1.0188916346
H       -1.2019821340    0.1758023375    0.5312438014
H       -0.3312308550   -1.2362758177    0.6369192997
15   
torsion grid (15,)
C        0.0134531664    1.4971970452   -3.0205082026
C       -0.0411208212    1.2308379239   -1.6713238542
C        0.1905510197   -0.1335942689   -1.0832194376
N       -0.2265468231    2.8137132258   -3.3235482265
N       -0.4693166901    3.5922441520   -2.3745256159
N        0.7138876435    0.2867451865    1.2849535858
N       -0.2742713525   -0.2414013195    0.3595420316
S       -0.4041181101    2.6675708053   -0.8076190460
H        0.2184076701    0.7948258324   -3.8207537833
H       -0.3652309565   -0.8910403937   -1.6416422780
H        1.2488845496   -0.4053455048   -1.0580180556
H        0.3619943658    0.1393535743    2.2339068635
H        0.7806781897    1.2943378663    1.1230839868
H       -1.2122283913    0.1847689543    0.4511163279
H       -0.3658346524   -1.2397619843    0.5854425070
15   
torsion grid (30,)
C       -0.0973195891    1.4559182964   -3.0401387403
C        0.0503995731    1.2361146092   -1.6891181682
C        0.2989269411   -0.1150914819   -1.0861760301
N       -0.3063300562    2.7740804616   -3.3578850275
N       -0.3569555774    3.5927855532   -2.4096033709
N        0.6395068281    0.2688730729    1.3270664872
N       -0.2727693994   -0.2463123169    0.3209326802
S       -0.0918360114    2.7222321018   -0.8438875503
H       -0.0627424728    0.7158733916   -3.8319909090
H       -0.1748051348   -0.8943182655   -1.6870713213
H        1.3628162391   -0.3406755940   -0.9728259540
H        0.2208607240    0.0966731727    2.2442662430
H        0.7085079804    1.2804751643    1.1945158828
H       -1.2168043030    0.1749531087    0.3476707928
H       -0.3768888627   -1.2481595292    0.5242498514
15   
torsion grid (45,)
C       -0.2570206728    1.4540746165   -2.9945263106
C        0.1232096424    1.2513436255   -1.6862362268
C        0.3839198022   -0.0950699668   -1.0870352551
N       -0.4424451772    2.7746456334   -3.3145766248
N       -0.2703429419    3.6099888133   -2.3876968473
N        0.5343422980    0.3052525615    1.3511310167
N       -0.2699124192   -0.2640028645    0.2849534401
S        0.2273568770    2.7680165829   -0.8878124180
H       -0.4071003888    0.6959933098   -3.7555150704
H       -0.0302697144   -0.8803878659   -1.7227001985
H        1.4448636257   -0.2900668054   -0.9095388044
H        0.0953218764    0.0535370754    2.2400091446
H        0.4979280425    1.3226813227    1.2583168265
H       -1.2388023320    0.0949833829    0.2465931142
H       -0.3236788824   -1.2714445700    0.4797724063
15   
torsion grid (60,)
C       -0.3780112582    1.4585946948   -2.9122161663
C        0.2286811853    1.2398333650   -1.6944971064
C        0.4741257838   -0.1074557722   -1.0997086895
N       -0.5068183889    2.7839253220   -3.2387314597
N       -0.0739577541    3.6084157282   -2.3793956020
N        0.4120181596    0.4285259379    1.3201154641
N       -0.2384703974   -0.2942538354    0.2443968859
S        0.6251379259    2.7617267349   -0.9968103660
H       -0.7327392059    0.7045102582   -3.6068818868
H        0.0878083273   -0.8920068565   -1.7541015530
H        1.5272418751   -0.2971161602   -0.8787223706
H        0.0035803336    0.1110730636    2.2022979498
H        0.1890478125    1.4193674920    1.2065003231
H       -1.2410329727   -0.0691020028    0.1318143443
H       -0.1744003672   -1.2911534419    0.4859175930
15   
torsion grid (75,)
C       -0.4972265757    1.4788214565   -2.7953291756
C        0.2907147088    1.2320216775   -1.6913191273
C        0.5576018748   -0.1130449948   -1.1046387002
N       -0.5854538632    2.8045402458   -3.1305757977
N        0.0613954469    3.6011858816   -2.3792650699
N        0.2979439786    0.4887129823    1.2807746681
N       -0.2188887081   -0.3283740495    0.2013824570
S        0.9169956468    2.7307141880   -1.1216581400
H       -1.0120144634    0.7432909360   -3.4050504283
H        0.2247078529   -0.9056720324   -1.7789624466
H        1.6038162729   -0.2713767902   -0.8365385065
H       -0.1549292970    0.1896248749    2.1473423091
H        0.0246998967    1.4554755338    1.0943846323
H       -1.2273228855   -0.1949654742    0.0194341072
H       -0.0835432912   -1.3073124236    0.4843102067
15   
torsion grid (90,)
C       -0.6057054168    1.5015680331   -2.6412657501
C        0.3351610383    1.2284498953   -1.6699735210
C        0.6332521387   -0.1134923824   -1.0898717508
N       -0.6663911472    2.8215244000   -3.0005776901
N        0.1560163381    3.5859612521   -2.3963298390
N        0.1903490963    0.5022569766    1.2553776492
N       -0.2082939982   -0.3679563514    0.1679151047
S        1.1437471927    2.6926847143   -1.2697286759
H       -1.2550549464    0.7888989312   -3.1402512368
H        0.3699015433   -0.9146386704   -1.7849379738
H        1.6687026649   -0.2299019177   -0.7676627587
H       -0.3421716468    0.2357202370    2.0864248468
H       -0.0725038714    1.4553271896    0.9971004610
H       -1.2093828837   -0.3013400633   -0.0781715657
H       -0.0282030604   -1.3309240145    0.4799235128
15   
torsion grid (105,)
C       -0.6810772541    1.5363552274   -2.4795473211
C        0.3842094632    1.2351046586   -1.6547634915
C        0.7061254870   -0.1023057773   -1.0719668917
N       -0.7144713842    2.8420856811   -2.8884557126
N        0.2489173346    3.5652799113   -2.4634993713
N        0.0874600122    0.5052906914    1.2262079091
N       -0.2004146130   -0.3955579490    0.1287028987
S        1.3379266112    2.6505747339   -1.4644001128
H       -1.4456314089    0.8548291570   -2.8406758736
H        0.5190169926   -0.9097461995   -1.7849622207
H        1.7240653011   -0.1774967630   -0.6895470476
H       -0.5105793149    0.2479344038    2.0143276110
H       -0.1681858952    1.4465105204    0.9207161436
H       -1.1857300488   -0.3797880024   -0.1800501859
H        0.0057233743   -1.3457495755    0.4633578425
15   
torsion grid (120,)
C       -0.7340532376    1.5766033930   -2.3240900535
C        0.4288693104    1.2399633362   -1.6599599059
C        0.7717521555   -0.0866724061   -1.0591560671
N       -0.7481169793    2.8580545454   -2.8050942837
N        0.3214208250    3.5242810179   -2.5905277575
N       -0.0095401232    0.5102028635    1.1851821017
N       -0.1893107818   -0.4150788518    0.0845754937
S        1.4904275087    2.5855087922   -1.7183829539
H       -1.5936952666    0.9412987770   -2.5180024015
H        0.6626085197   -0.9023081058   -1.7799258243
H        1.7679297420   -0.1172116780   -0.6184575875
H       -0.6499537970    0.2410678267    1.9350400846
H       -0.2777759661    1.4365026787    0.8459611682
H       -1.1545364440   -0.4530024213   -0.2795378352
H        0.0426408509   -1.3508551513    0.4423005795
15   
torsion grid (135,)
C       -0.7727247515    1.6269242828   -2.1586308497
C        0.4559528911    1.2436901038   -1.6595752417
C        0.8214203951   -0.0673505215   -1.0333953765
N       -0.7756091959    2.8719216712   -2.7302284245
N        0.3560823715    3.4630732225   -2.7369577753
N       -0.1077994622    0.4895943004    1.1613812824
N       -0.1842749251   -0.4398748999    0.0517012909
S        1.5824018841    2.4939280770   -1.9813665278
H       -1.6989012737    1.0588835779   -2.1654303323
H        0.7989551345   -0.8877389788   -1.7572496388
H        1.7903019257   -0.0465985832   -0.5342235030
H       -0.7908954057    0.2023297583    1.8653461547
H       -0.3754387426    1.4086528176    0.8022447381
H       -1.1255282722   -0.5267693488   -0.3627966408
H        0.0721432583   -1.3643112970    0.4218242314
15   
torsion grid (150,)
C       -0.7596671397    1.6913620859   -2.0045238940
C        0.4983030492    1.2380986692   -1.6649236463
C        0.8745018278   -0.0504209889   -0.9974431297
N       -0.7558839302    2.8882312092   -2.6742016339
N        0.3992816473    3.3764580469   -2.8977428574
N       -0.2032095366    0.4557530421    1.1414576017
N       -0.1789423904   -0.4632042753    0.0200877416
S        1.6545035756    2.3586153792   -2.2492929026
H       -1.7200247314    1.2170289864   -1.8219152581
H        0.9410105712   -0.8753391978   -1.7139172062
H        1.8067737306    0.0202896280   -0.4357076135
H       -0.9251945651    0.1438224336    1.7941535738
H       -0.4641032256    1.3739591342    0.7757368493
H       -1.0891887418   -0.5854213823   -0.4513209448
H        0.0901822956   -1.3804632566    0.3986158524
15   
torsion grid (165,)
C       -0.7486913218    1.7805045007   -1.8722522401
C        0.5128245873    1.2588707903   -1.6776627410
C        0.9139772518    0.0019563311   -0.9648985936
N       -0.7662533216    2.9196109151   -2.6380786057
N        0.3694816148    3.3038320890   -3.0598170257
N       -0.2894139277    0.4024957004    1.1306485644
N       -0.1786606777   -0.4709748616   -0.0221531149
S        1.6428718900    2.2417054381   -2.5097422257
H       -1.7020480154    1.4029858377   -1.5128200869
H        1.0838466978   -0.8207243842   -1.6666599191
H        1.7991588229    0.1332902513   -0.3397731564
H       -1.0481801432    0.0573001127    1.7220192850
H       -0.5331139824    1.3342667581    0.7893207013
H       -1.0570277957   -0.6015163654   -0.5496575384
H        0.0960283121   -1.3932514642    0.3394859084
15   
torsion grid (180,)
C        0.1543471544    2.2297421701   -1.1533780274
C       -0.2437530677    1.0439084025   -1.7319124911
C       -0.3506255914   -0.3180367103   -1.1162888434
N        0.1276847618    3.3008220656   -2.0128006066
N       -0.2551057763    3.0372868138   -3.1940308235
N       -0.1313398470   -1.5834861364    0.9587543117
N        0.0658347992   -0.2863994856    0.3422442181
S       -0.6439883823    1.3400754358   -3.3724101747
H        0.4757424413    2.4143604042   -0.1325179806
H       -1.3697413960   -0.7105904832   -1.1168623868
H        0.3042026739   -1.0436928528   -1.6066787724
H        0.0677930354   -1.4942943336    1.9575647613
H        0.5480877713   -2.2289023500    0.5521256898
H        1.0279681985    0.0812257596    0.4191690953
H       -0.5507087384    0.3728706720    0.8345588016
