9    
torsion grid (-165,)
C        0.4169794665   -0.4469216531   -1.5047865357
C       -0.9765500694    1.3183373504   -0.3968978824
N       -0.3634040570    0.0061819931   -0.3546588309
O        0.7848586531    0.4533585711   -2.3098992755
O        0.6530382145   -1.6876138839   -1.5039478741
H       -1.8590040567    1.3985353500   -1.0630272984
H       -0.2318931409    2.0220240102   -0.7756677519
H       -1.2872631181    1.6314354466    0.6129074888
H       -0.9566695632   -0.7430897541   -0.0174734868
9    
torsion grid (-150,)
C        0.4243348234   -0.4334444853   -1.4962307557
C       -0.9813548531    1.3091394459   -0.4011650413
N       -0.2914855578    0.0335430699   -0.3011504077
O        0.8985699251    0.4675698059   -2.2400163196
O        0.4800808611   -1.6913756446   -1.5979521687
H       -1.8680429231    1.3008896039   -1.0656795171
H       -0.2788674206    2.0371118714   -0.8139339399
H       -1.3089004885    1.6510703958    0.5936225780
H       -0.8942420377   -0.7222566325    0.0090541253
9    
torsion grid (-135,)
C        0.4302699638   -0.4201808448   -1.4912459474
C       -0.9868375750    1.2961293777   -0.4073800097
N       -0.2212654810    0.0648813675   -0.2556951146
O        1.0184367704    0.4569434622   -2.1767306436
O        0.2959155282   -1.6607390842   -1.6893036505
H       -1.8677912078    1.2050979010   -1.0728752165
H       -0.3273247708    2.0518868060   -0.8420639182
H       -1.3399818298    1.6555374982    0.5721288841
H       -0.8213290692   -0.6973090534    0.0497141696
9    
torsion grid (-120,)
C        0.4316749242   -0.4086001996   -1.4909850251
C       -0.9912703559    1.2805554231   -0.4155439885
N       -0.1493800237    0.1023308397   -0.2192925374
O        1.1364703113    0.4144874064   -2.1283510902
O        0.1042084455   -1.5967442263   -1.7698682421
H       -1.8498529003    1.1138368859   -1.0952723238
H       -0.3775534424    2.0753206551   -0.8498035622
H       -1.3880713539    1.6347647397    0.5486459083
H       -0.7361332761   -0.6637040936    0.1070194142
9    
torsion grid (-105,)
C        0.4372128712   -0.3942706691   -1.4923571168
C       -1.0014309458    1.2616397563   -0.4234184264
N       -0.0884226655    0.1402681371   -0.1922654841
O        1.2728322446    0.3420118872   -2.0708605894
O       -0.0770090818   -1.4914778899   -1.8501368495
H       -1.8458209423    1.0209011991   -1.0981032323
H       -0.4389408185    2.0852365168   -0.8755237918
H       -1.4208342484    1.6179744517    0.5302158621
H       -0.6574940847   -0.6300359589    0.1589981815
9    
torsion grid (-90,)
C        0.4450344803   -0.3761521499   -1.4976764333
C       -1.0180451485    1.2416838083   -0.4284205871
N       -0.0389542438    0.1790257766   -0.1743076742
O        1.4168080345    0.2315581342   -2.0033452569
O       -0.2373146641   -1.3445784591   -1.9358065362
H       -1.8568779872    0.9277140708   -1.0777820711
H       -0.5109262522    2.0812255010   -0.9180817095
H       -1.4383692821    1.6120353235    0.5194976515
H       -0.5812626081   -0.6002645750    0.2024711700
9    
torsion grid (-75,)
C        0.5471287250   -0.4391355396   -1.2320611392
C       -1.1708505762    1.2248895897   -0.7146539156
N       -0.7770841692   -0.1790712803   -0.5742805498
O        1.4958927387   -0.6403248922   -0.4224987535
O        0.5203453461   -0.4872425176   -2.4857597387
H       -2.1303272653    1.4095145977   -0.2069624177
H       -1.3038001160    1.4466857044   -1.7790784475
H       -0.4306410115    1.9435869135   -0.3119998743
H       -0.5705713429   -0.3266551453    0.4138433897
9    
torsion grid (-60,)
C        0.5548466909   -0.4469554456   -1.2149731309
C       -1.1862567824    1.2245623587   -0.7294608332
N       -0.7264678898   -0.1470700779   -0.5202396349
O        1.4701425908   -0.8645684229   -0.4505877538
O        0.5330326394   -0.3135395232   -2.4649666107
H       -2.1537032783    1.3882959573   -0.2295589938
H       -1.3225432100    1.3807517991   -1.8039094257
H       -0.4828357408    1.9996332880   -0.3666877445
H       -0.5061226910   -0.2688625032    0.4669326808
9    
torsion grid (-45,)
C        0.5596749565   -0.4590470227   -1.2033342622
C       -1.1992916583    1.2249256125   -0.7407036538
N       -0.6715454656   -0.1061181990   -0.4680581460
O        1.4197995590   -1.0630308054   -0.5021758854
O        0.5643798348   -0.1672728064   -2.4284006612
H       -2.1769889089    1.3611649455   -0.2520890129
H       -1.3307328738    1.3200324381   -1.8219075670
H       -0.5397571800    2.0533099491   -0.4146533459
H       -0.4454459349   -0.2117166814    0.5178710877
9    
torsion grid (-30,)
C        0.5621311380   -0.4713186248   -1.1980265855
C       -1.2110726694    1.2239059370   -0.7481849601
N       -0.6149018317   -0.0605989746   -0.4216424149
O        1.3486533946   -1.2319543367   -0.5666791860
O        0.6164600661   -0.0430462506   -2.3829008430
H       -2.1942516822    1.3295360659   -0.2622650431
H       -1.3435983657    1.2633678610   -1.8319767136
H       -0.5969261197    2.1015373163   -0.4642936887
H       -0.3864016013   -0.1591815633    0.5625179882
9    
torsion grid (-15,)
C        0.5679438897   -0.4800828102   -1.1940547062
C       -1.2200032628    1.2231245712   -0.7553682328
N       -0.5549018224   -0.0092885535   -0.3860740694
O        1.2599566844   -1.3752575646   -0.6327952701
O        0.6984890524    0.0623652787   -2.3267624564
H       -2.1963072559    1.3017070439   -0.2502555794
H       -1.3775918828    1.2064159388   -1.8361050563
H       -0.6473042990    2.1455652291   -0.5316801799
H       -0.3501887748   -0.1223017032    0.5996441036
9    
torsion grid (0,)
C        0.5276911544   -0.5323964342   -1.2278704644
C       -1.1908982681    1.2744311022   -0.7232992483
N       -0.3151441133    0.2105798055   -0.3202564737
O        1.2212804124   -1.4277456194   -0.6654592929
O        0.4622378712   -0.1955239746   -2.4449986493
H       -2.2593369795    1.0716559869   -0.5141904082
H       -1.0668409981    1.3710837333   -1.8062723824
H       -0.9461711328    2.2494209130   -0.2586388911
H       -0.2527256175   -0.0692580824    0.6475343635
9    
torsion grid (15,)
C        0.4661037618   -0.5714146281   -1.2138597053
C       -1.1316920583    1.3023153908   -0.7381994541
N       -0.0666862723    0.4285520398   -0.2911121030
O        1.1598996749   -1.4649960076   -0.6522625147
O        0.1659199526   -0.4152387842   -2.4303373166
H       -2.1261184110    0.8191924029   -0.8195782407
H       -0.8735865082    1.6585399022   -1.7379952667
H       -1.2313744888    2.1670868937   -0.0623926409
H       -0.1823733220    0.0282102209    0.6322857953
9    
torsion grid (30,)
C        0.4588911218   -0.5639091448   -1.2180977149
C       -1.1347295127    1.2923614434   -0.7333511685
N       -0.0040579129    0.4872154816   -0.3028518864
O        0.9988000589   -1.5457168866   -0.6347139971
O        0.2873923489   -0.3381547638   -2.4468858286
H       -2.1017785030    0.7517643612   -0.7573434055
H       -0.9328106483    1.6319780349   -1.7519843577
H       -1.2561425111    2.1708301174   -0.0795427260
H       -0.1354721130    0.0658787871    0.6113196380
9    
torsion grid (45,)
C        0.4483164110   -0.5589111188   -1.2250134731
C       -1.1383302164    1.2795966096   -0.7288316524
N        0.0548645730    0.5453423687   -0.3267296631
O        0.8145991532   -1.6057960491   -0.6199490054
O        0.4225853383   -0.2944158239   -2.4559977805
H       -2.0702882577    0.6806807854   -0.7124222255
H       -0.9912933547    1.6244648498   -1.7558517063
H       -1.2904182117    2.1562592694   -0.0795788212
H       -0.0699431063    0.1250265391    0.5909228807
9    
torsion grid (60,)
C        0.4394152180   -0.5504719527   -1.2374445711
C       -1.1414680887    1.2647289335   -0.7207355585
N        0.1104665758    0.6035126061   -0.3574070863
O        0.6061510758   -1.6394254119   -0.6187105384
O        0.5754108950   -0.2755102943   -2.4567315792
H       -2.0330332874    0.6093658254   -0.6682837861
H       -1.0549175665    1.6207789037   -1.7518254918
H       -1.3235891153    2.1327582719   -0.0680332358
H        0.0016566221    0.1865105486    0.5657204005
9    
torsion grid (75,)
C        0.4360718899   -0.5387286893   -1.2536812370
C       -1.1462344656    1.2469647194   -0.7098536341
N        0.1573770170    0.6589768009   -0.3924733135
O        0.3796715498   -1.6413891422   -0.6396938849
O        0.7500201476   -0.2812406464   -2.4410851637
H       -1.9944861226    0.5410792653   -0.6162528413
H       -1.1259666384    1.6061852004   -1.7444639337
H       -1.3510252973    2.1084063880   -0.0553221294
H        0.0746642484    0.2519935342    0.5393746910
9    
torsion grid (90,)
C        0.4395991543   -0.3810187279   -1.4987434460
C       -1.2361390648    1.0460864786   -0.4708449572
N       -0.3390234530   -0.0900923243   -0.2326941263
O       -0.1285675027   -1.1543645972   -2.3040256421
O        1.5335417138    0.2435888711   -1.5912784733
H       -1.7609511614    1.3227191445    0.4567477424
H       -1.9936018058    0.7515211482   -1.2065414025
H       -0.7213984788    1.9460475754   -0.8568501129
H        0.3866329272    0.2677598619    0.3907789712
9    
torsion grid (105,)
C        0.4567872877   -0.3767078713   -1.4885583369
C       -1.2580498294    1.0314921107   -0.4733382252
N       -0.2932543879   -0.0434380283   -0.2321224000
O       -0.2095160216   -0.9873855186   -2.3592767536
O        1.6447426739    0.0526500770   -1.5151644794
H       -1.7705002835    1.3043682849    0.4621963779
H       -2.0126646351    0.6738770784   -1.1816982626
H       -0.8087874593    1.9509457315   -0.8963245414
H        0.4313349840    0.3464455661    0.3708351745
9    
torsion grid (120,)
C        0.4709242682   -0.3733923794   -1.4833583561
C       -1.2790014198    1.0225053977   -0.4715169364
N       -0.2453839770    0.0162248580   -0.2379756485
O       -0.2562560964   -0.8345338940   -2.3993291006
O        1.7147556488   -0.1523485927   -1.4565337211
H       -1.7935486787    1.2711052578    0.4697676525
H       -2.0137025639    0.6079761401   -1.1681239560
H       -0.8995289954    1.9661176837   -0.9103633993
H        0.4818341431    0.4285929590    0.3439820189
9    
torsion grid (135,)
C        0.4823733036   -0.3734460730   -1.4811178072
C       -1.2962689313    1.0186185512   -0.4675737599
N       -0.1950694265    0.0883693355   -0.2506008345
O       -0.2772679806   -0.7050692882   -2.4288239439
O        1.7436201449   -0.3623855439   -1.4076578845
H       -1.8228669718    1.2224554378    0.4781894450
H       -1.9968123812    0.5546373270   -1.1668853664
H       -0.9915800494    1.9909183428   -0.9023697352
H        0.5339646210    0.5181493412    0.3133884400
9    
torsion grid (150,)
C        0.4968488705   -0.3684043321   -1.4821318368
C       -1.3107188384    1.0137522855   -0.4652364086
N       -0.1489377515    0.1613793024   -0.2734205042
O       -0.2639771542   -0.5750224232   -2.4662027237
O        1.7383747916   -0.5628918461   -1.3531597442
H       -1.8257187595    1.1875522355    0.4930820261
H       -1.9925211700    0.5002551642   -1.1473485523
H       -1.0863487605    2.0019458566   -0.9135610968
H        0.5730911008    0.5936811874    0.2945273937
9    
torsion grid (165,)
C        0.5124073904   -0.3613325411   -1.4862289314
C       -1.3209871976    1.0094328661   -0.4639013300
N       -0.1048311312    0.2380750538   -0.3043562211
O       -0.2256396569   -0.4528758948   -2.5064996932
O        1.7000362950   -0.7486270066   -1.3002658421
H       -1.8125316321    1.1603336117    0.5107233427
H       -1.9899336948    0.4453601468   -1.1177269349
H       -1.1827588236    2.0050276316   -0.9314155549
H        0.6043307797    0.6568535629    0.2862197182
9    
torsion grid (180,)
C        0.4882895363   -0.4399467380   -1.4586145135
C       -1.0338662396    1.3179534801   -0.4259943062
N       -0.5964870371   -0.0391754730   -0.5932216096
O        1.0636763650    0.4911516624   -2.0921170895
O        0.7100164317   -1.6848004752   -1.4587575897
H       -2.0849987937    1.4852347560   -0.7318735009
H       -0.3895051793    1.9225203013   -1.0716763507
H       -0.9320189428    1.6916245926    0.6115664995
H       -1.0450138118   -0.7923146759   -0.0927629861
