22   
torsion grid (-165,)
C        2.1879344702   -0.5102152815   -0.1568011027
C        0.8611130696   -0.3635877760    0.2717372710
C        3.0968842890   -1.1536436046    0.6759325508
C        0.4750971352   -0.8273302357    1.5234660128
C        5.3985959995   -3.1187525528    3.8067841513
C        2.7232336098   -1.6534864292    1.9396750680
C        1.3987061255   -1.4508721934    2.3835940515
C        3.7440859222   -2.4261573633    2.6806978466
C        1.6905986148   -2.1763416821    4.7015688480
N        4.7816458599   -1.9752087507    3.3811321749
N        4.8211697244   -4.2504171282    3.4160373402
N        3.7678780312   -3.7857745154    2.6920428478
O        0.8642206342   -1.8229953368    3.5852416546
H        2.5028576545   -0.1368406235   -1.1266471856
H        0.1289123434    0.1226224773   -0.3676461528
H        4.1255874357   -1.2956760940    0.3561089777
H       -0.5418198959   -0.7010857710    1.8828161876
H        6.2926889131   -3.1206097794    4.4169702519
H        1.0250523125   -2.1513856570    5.5660649699
H        2.5013944292   -1.4566624533    4.8406614475
H        2.1045750593   -3.1829937916    4.5979485955
H        3.1351632247   -4.4305299957    2.2340065231
22   
torsion grid (-150,)
C        2.2466190827   -0.3730921575   -0.0683795757
C        0.8875283023   -0.4091047490    0.2738672013
C        3.1734992786   -0.9922888069    0.7638907319
C        0.4794934835   -1.0074344083    1.4623493454
C        5.5201688336   -3.1908524193    3.6183635525
C        2.7756410823   -1.6397137044    1.9498067464
C        1.4183549281   -1.5851700738    2.3323109563
C        3.7875231934   -2.4366135371    2.6627603811
C        1.6740476464   -2.1237064498    4.6941111983
N        4.9822166064   -2.0455775733    3.1020889748
N        4.7464806695   -4.2681014928    3.5288593335
N        3.6433545261   -3.7662223843    2.9108093596
O        0.8909476708   -2.0998688483    3.4894671060
H        2.5732677942    0.1131851139   -0.9828411795
H        0.1465944930    0.0459416260   -0.3781785319
H        4.2265399369   -1.0159357553    0.4989259700
H       -0.5630945844   -1.0078401271    1.7661659025
H        6.5014790480   -3.2347269700    4.0730747300
H        0.9615146837   -1.9940137998    5.5115460194
H        2.4009108503   -1.3066507385    4.7108491673
H        2.1945308828   -3.0760343779    4.8173072482
H        2.8686302899   -4.3726166752    2.6701964735
22   
torsion grid (-135,)
C        2.2236744416   -0.2960363641   -0.0049168214
C        0.8604997645   -0.4108821333    0.2974203838
C        3.1617874396   -0.9298827915    0.8057471047
C        0.4514206315   -1.1057174562    1.4351772662
C        5.5541914363   -3.2701716005    3.4590024585
C        2.7639572694   -1.6704868296    1.9338868271
C        1.3970970978   -1.6959252855    2.2821213793
C        3.7762344299   -2.4743319489    2.6292043456
C        1.5435407763   -2.1145746894    4.6618790409
N        5.0460205427   -2.1478155691    2.8705799229
N        4.6938163116   -4.2744005664    3.5991369178
N        3.5629769468   -3.7469097644    3.0585624523
O        0.8990644154   -2.3428143321    3.3923780782
H        2.5481996752    0.2622119499   -0.8782640860
H        0.1165009422    0.0546007126   -0.3435583458
H        4.2199736206   -0.8961638574    0.5647456457
H       -0.5967712863   -1.1735161474    1.7108756189
H        6.5791378914   -3.3523196512    3.7970119603
H        0.7468977890   -1.9294987665    5.3870387162
H        2.2054774688   -1.2455596684    4.6187977916
H        2.1193520497   -2.9901444941    4.9701683982
H        2.7158482630   -4.2983474371    2.9929830977
22   
torsion grid (-120,)
C        2.2658476710   -0.2353811948   -0.0007073766
C        0.9031691445   -0.3599759472    0.2940706317
C        3.2065698636   -0.9031103841    0.7812146474
C        0.4946508349   -1.1057437772    1.4020316461
C        5.6196757789   -3.3816031252    3.2454101477
C        2.8094634562   -1.6853745712    1.8799863517
C        1.4416158412   -1.7202995016    2.2240659666
C        3.8194875683   -2.5136001426    2.5463862000
C        1.3919734980   -2.0191695301    4.5957653365
N        5.1344828567   -2.2895137723    2.5879741245
N        4.7037231347   -4.2730100224    3.6142074457
N        3.5594838541   -3.7008693767    3.1564075328
O        0.9637739366   -2.4643265903    3.2928211688
H        2.5907032169    0.3546407105   -0.8529556663
H        0.1597612609    0.1251051444   -0.3327538001
H        4.2636641000   -0.8660075608    0.5371650953
H       -0.5546810735   -1.1993651729    1.6660873104
H        6.6699633384   -3.5267779938    3.4626560756
H        1.0186935615   -2.7587985934    5.3063067984
H        0.9494618887   -1.0412474961    4.8173609954
H        2.4792450953   -1.9511422816    4.6771115657
H        2.6609100247   -4.1529914973    3.2783101343
22   
torsion grid (-105,)
C        2.2722208027   -0.2159425990    0.0334262259
C        0.9156335702   -0.3171291601    0.3638225676
C        3.2209801516   -0.9310333961    0.7620098168
C        0.5196564305   -1.1073656690    1.4457493199
C        5.6789615488   -3.4183529106    3.1647189001
C        2.8368220107   -1.7476944947    1.8403283567
C        1.4743149588   -1.7926299192    2.1980497477
C        3.8576928972   -2.5631291574    2.5043910932
C        1.2719703559   -1.9930934178    4.5510700221
N        5.1787948069   -2.3771043504    2.4415231843
N        4.7664445521   -4.2431645851    3.6726226508
N        3.6090247032   -3.6784467548    3.2410204560
O        1.0332123610   -2.5793376432    3.2556659688
H        2.5865965597    0.4031190551   -0.8020924313
H        0.1683534020    0.2168757821   -0.2168890060
H        4.2735515325   -0.8926163155    0.4998996100
H       -0.5248803387   -1.1957596419    1.7304188799
H        6.7373595536   -3.5761639060    3.3269706336
H        0.9295608664   -2.7229398783    5.2871613098
H        0.6970916484   -1.0660169209    4.6561698117
H        2.3348342474   -1.7825874571    4.7075989328
H        2.7072454972   -4.0931756835    3.4443998259
22   
torsion grid (-90,)
C        2.2833435879   -0.2282425272    0.0594641964
C        0.9365496556   -0.2975680347    0.4371859834
C        3.2382792510   -0.9786308767    0.7419678222
C        0.5555564427   -1.1061720819    1.5102409952
C        5.7407877428   -3.4588277755    3.0992239517
C        2.8709511776   -1.8052515161    1.8195139076
C        1.5169832075   -1.8426492558    2.2038523712
C        3.9038836848   -2.6099305017    2.4772322524
C        1.1154839800   -1.9612714571    4.5298380376
N        5.2234622695   -2.4668574593    2.3223629314
N        4.8415237076   -4.2125799274    3.7275379965
N        3.6742185155   -3.6505538242    3.3212302192
O        1.1087888056   -2.6468776729    3.2627724170
H        2.5848511646    0.4009979928   -0.7732356076
H        0.1854796648    0.2721486479   -0.1032663394
H        4.2841014650   -0.9506221941    0.4534110778
H       -0.4827782383   -1.1796419759    1.8215295884
H        6.8029704693   -3.6338769526    3.2112243274
H        0.7830059812   -2.6853844463    5.2762296442
H        0.4249435234   -1.1108190812    4.5086975570
H        2.1226449489   -1.6072311513    4.7785291157
H        2.7745778330   -4.0214068854    3.6027247422
22   
torsion grid (-75,)
C        2.3058289078   -0.2429182216    0.0672973199
C        0.9725394721   -0.2756027459    0.4958949900
C        3.2645166407   -1.0176998158    0.7149326748
C        0.6094133736   -1.0790556179    1.5779813501
C        5.8107789675   -3.5009870758    3.0107517332
C        2.9167928511   -1.8332861386    1.8081811227
C        1.5753058994   -1.8459328691    2.2338263273
C        3.9613748346   -2.6385060924    2.4465020044
C        0.9350022788   -1.9327921196    4.5153527461
N        5.2729227282   -2.5433293378    2.2060152928
N        4.9319038888   -4.1892570223    3.7359161035
N        3.7570102607   -3.6200747511    3.3639116110
O        1.1998419659   -2.6555898434    3.2994716994
H        2.5928929809    0.3795613490   -0.7754759925
H        0.2171690669    0.3150519415   -0.0153157622
H        4.3008683932   -1.0121850603    0.3930755496
H       -0.4221257440   -1.1290392817    1.9154786297
H        6.8729526663   -3.7002084641    3.0704499872
H        0.6451264253   -2.6762651228    5.2603461507
H        0.1171689674   -1.2178873039    4.3757772403
H        1.8325329793   -1.3994673161    4.8499974570
H        2.8659544124   -3.9412256202    3.7221957851
22   
torsion grid (-60,)
C        2.3684126567   -0.2770998967    0.0508239917
C        1.0516045982   -0.2643340157    0.5275587198
C        3.3249540648   -1.0696460597    0.6790343314
C        0.7029927422   -1.0409923993    1.6334919385
C        5.8952564093   -3.5710437862    2.9154384502
C        2.9950317128   -1.8556950648    1.7991256383
C        1.6689058950   -1.8245905862    2.2720762672
C        4.0449294477   -2.6710604890    2.4156507389
C        0.7847212438   -1.9333816746    4.4873329229
N        5.3424056377   -2.6375554613    2.0933914264
N        5.0399064505   -4.1867805779    3.7287879676
N        3.8647068132   -3.5955171097    3.3950237424
O        1.3275480827   -2.6268470694    3.3513404040
H        2.6435373762    0.3238598872   -0.8112350928
H        0.2946816365    0.3392734178    0.0340264021
H        4.3497929550   -1.0990814773    0.3236226575
H       -0.3205976577   -1.0518043288    1.9958677540
H        6.9516420522   -3.8065931782    2.9224818864
H        0.6550830089   -2.6833935533    5.2697597918
H       -0.1869653730   -1.4851703921    4.2568184801
H        1.4765766224   -1.1550528393    4.8278190581
H        2.9878191186   -3.8579577991    3.8273588978
22   
torsion grid (-45,)
C        2.3702751186   -0.2907331375    0.0567332662
C        1.0741718269   -0.2312079903    0.5812966735
C        3.3260271846   -1.0981378064    0.6678115298
C        0.7436240022   -0.9769895592    1.7144094142
C        5.9146275833   -3.6266356171    2.8397642015
C        3.0168216097   -1.8528854519    1.8139928397
C        1.7098988181   -1.7739114381    2.3372585360
C        4.0690178063   -2.6829482593    2.4059366242
C        0.6125722407   -1.9444521793    4.4639161638
N        5.3451548138   -2.7145841356    2.0058477958
N        5.0890698132   -4.1702717639    3.7316857225
N        3.9167856758   -3.5518393203    3.4393744082
O        1.4021457416   -2.5578914158    3.4341687329
H        2.6310506367    0.2862815923   -0.8257858973
H        0.3163862753    0.3857241358    0.1058254106
H        4.3365453107   -1.1634966252    0.2779442029
H       -0.2656813092   -0.9413857938    2.1117073785
H        6.9606339660   -3.9014036754    2.7958959400
H        0.6991547666   -2.5903880321    5.3395868692
H       -0.4416951938   -1.8793738415    4.1749346250
H        0.9942086315   -0.9456974494    4.6995686118
H        3.0608087519   -3.7583783696    3.9379532766
22   
torsion grid (-30,)
C        2.3676097809   -0.3121065689    0.0567433385
C        1.0943988765   -0.2092068903    0.6255584019
C        3.3253137356   -1.1273568774    0.6554390779
C        0.7847128123   -0.9181187720    1.7888501661
C        5.9360002764   -3.6612371947    2.7853630533
C        3.0397208972   -1.8467105805    1.8287225913
C        1.7527704439   -1.7251132606    2.3968297813
C        4.0955575963   -2.6842678934    2.4030147024
C        0.4964165051   -1.9791661773    4.4327146641
N        5.3480800754   -2.7715175359    1.9404862082
N        5.1443413157   -4.1396974871    3.7429014312
N        3.9745112162   -3.5033201495    3.4804543058
O        1.4840166580   -2.4757489666    3.5222048871
H        2.6104342621    0.2373249029   -0.8481008965
H        0.3350357253    0.4162454059    0.1639113024
H        4.3202579616   -1.2260651527    0.2338236633
H       -0.2088972188   -0.8405034949    2.2164465833
H        6.9705046844   -3.9681928830    2.7006405491
H        0.6184731385   -2.5532652630    5.3526321220
H       -0.5164918622   -2.1367542026    4.0463539571
H        0.6551925939   -0.9150245636    4.6361018365
H        3.1435218809   -3.6590312076    4.0359911147
22   
torsion grid (-15,)
C        2.3485764520   -0.3339502851    0.0560489326
C        1.1012074775   -0.1882131188    0.6685314575
C        3.3091411147   -1.1539862959    0.6447131601
C        0.8161698691   -0.8569949351    1.8625247817
C        5.9399029360   -3.6966149655    2.7318367279
C        3.0509295106   -1.8361288809    1.8451207126
C        1.7859621741   -1.6736540827    2.4548486772
C        4.1104259133   -2.6800656988    2.4030570829
C        0.4254754959   -2.0242878902    4.4110671191
N        5.3316731476   -2.8309690847    1.8768226762
N        5.1914055534   -4.0984704362    3.7569247988
N        4.0279949835   -3.4376446040    3.5282566354
O        1.5603544324   -2.3768451062    3.6170101019
H        2.5702521048    0.1854284808   -0.8716457533
H        0.3398659115    0.4441102924    0.2197053034
H        4.2860862451   -1.2866720929    0.1915966526
H       -0.1586141716   -0.7366179477    2.3206813014
H        6.9575828320   -4.0426181389    2.6044623147
H        0.5204558826   -2.5933991084    5.3367726161
H       -0.5099553067   -2.3020706931    3.9128581578
H        0.4233115832   -0.9523005679    4.6364256952
H        3.2286809584   -3.5351024484    4.1403431711
22   
torsion grid (0,)
C        2.3428253323   -0.3583362706    0.0402042421
C        1.1191486714   -0.1625029689    0.6847641107
C        3.3019150789   -1.1828435354    0.6255548915
C        0.8553739343   -0.7872608720    1.9075340613
C        5.9298869522   -3.7357870538    2.7034934075
C        3.0640323448   -1.8228160204    1.8526445983
C        1.8203020149   -1.6147364786    2.4927924986
C        4.1205860323   -2.6743389257    2.4046518660
C        0.3837656303   -2.0738272483    4.3713586515
N        5.3074045735   -2.9006112032    1.8287232037
N        5.2214425986   -4.0518471966    3.7854575828
N        4.0709284554   -3.3629163801    3.5752534807
O        1.6268760431   -2.2592006482    3.6932310095
H        2.5482514312    0.1267504067   -0.9094972853
H        0.3608761782    0.4774722760    0.2415748903
H        4.2610693553   -1.3533725391    0.1477793730
H       -0.0996736547   -0.6224935225    2.3920017543
H        6.9276270726   -4.1252112632    2.5470390589
H        0.4518107168   -2.6666312530    5.2842905466
H       -0.4544016143   -2.4345627452    3.7649404744
H        0.2295280616   -1.0207181101    4.6315611691
H        3.3029130014   -3.3933991506    4.2326277496
22   
torsion grid (15,)
C        2.3256894058   -0.3810897433    0.0269892504
C        1.1275438093   -0.1337044021    0.7019301623
C        3.2820825614   -1.2096672766    0.6104615781
C        0.8864025667   -0.7118164437    1.9516398606
C        5.9037369769   -3.7710349518    2.6862825268
C        3.0656375625   -1.8056098868    1.8638461562
C        1.8459794127   -1.5495346894    2.5310582901
C        4.1178938193   -2.6645018719    2.4125994418
C        0.3697789390   -2.1391668736    4.3404665249
N        5.2687474085   -2.9608251955    1.7970741723
N        5.2371698145   -4.0038881897    3.8150000984
N        4.0991823884   -3.2904873750    3.6186600566
O        1.6794205067   -2.1307876107    3.7681547909
H        2.5133626208    0.0680145322   -0.9438848656
H        0.3735218599    0.5137274640    0.2623832859
H        4.2218121429   -1.4192243250    0.1101278388
H       -0.0462838316   -0.5044674165    2.4632060634
H        6.8796464411   -4.2031812921    2.5061004920
H        0.4373767618   -2.7648512772    5.2314140382
H       -0.3589378016   -2.5677806954    3.6438897741
H        0.0571935006   -1.1305407273    4.6326235429
H        3.3649885654   -3.2534335293    4.3133799859
22   
torsion grid (30,)
C        2.3173792176   -0.3968900970    0.0089847728
C        1.1429042632   -0.0938533538    0.7046654739
C        3.2669157395   -1.2313546880    0.5941171682
C        0.9219499257   -0.6258248628    1.9774251556
C        5.8619225143   -3.8107284217    2.6885533966
C        3.0666453825   -1.7833553365    1.8711677782
C        1.8712143616   -1.4753502076    2.5564556730
C        4.1086775837   -2.6524503216    2.4234224560
C        0.3846938970   -2.2165646967    4.2966895532
N        5.2198551490   -3.0281534211    1.7796096734
N        5.2365543254   -3.9519520487    3.8554133258
N        4.1190261366   -3.2056207535    3.6645787357
O        1.7185188932   -1.9929138350    3.8256269237
H        2.4919202301    0.0162736962   -0.9801793230
H        0.3972734055    0.5626690778    0.2642795042
H        4.1874089780   -1.4814008091    0.0768893603
H        0.0127809791   -0.3761774530    2.5133642258
H        6.8119543766   -4.2915614858    2.4940771050
H        0.4787456479   -2.8533500789    5.1778108269
H       -0.2165959610   -2.7240099066    3.5351224056
H       -0.0982770033   -1.2769934930    4.5864377913
H        3.4186140699   -3.0950508553    4.3861300799
22   
torsion grid (45,)
C        2.3367879642   -0.4131158208   -0.0053553584
C        1.1867922103   -0.0483136754    0.7038262180
C        3.2729044998   -1.2583374142    0.5844783342
C        0.9781322109   -0.5329377261    1.9964792735
C        5.8202912673   -3.8592835509    2.7174011046
C        3.0795193567   -1.7634396722    1.8830772894
C        1.9103816758   -1.3966269814    2.5810976430
C        4.1046951417   -2.6466630153    2.4447581391
C        0.4477876164   -2.3146033465    4.2477266926
N        5.1773108331   -3.1017614105    1.7875398417
N        5.2300583306   -3.9114378718    3.9096672893
N        4.1363384140   -3.1320239270    3.7133585822
O        1.7565237897   -1.8575962079    3.8758862688
H        2.5030634756   -0.0363113452   -1.0104045225
H        0.4556449677    0.6208389087    0.2582308901
H        4.1740158809   -1.5529382975    0.0565492986
H        0.0931399683   -0.2369577885    2.5504355650
H        6.7434706434   -4.3884852290    2.5192326099
H        0.5740819378   -2.8780069098    5.1740759539
H        0.0307960147   -2.9643324193    3.4714310811
H       -0.2315027407   -1.4759229953    4.4332203066
H        3.4680173272   -2.9479973611    4.4505131758
22   
torsion grid (60,)
C        2.2991121944   -0.4012722493   -0.0112915838
C        1.1822167279    0.0232614578    0.7192596615
C        3.2220624018   -1.2640907281    0.5730857088
C        0.9952741653   -0.4241155814    2.0279880103
C        5.7238683244   -3.9116958283    2.7166609449
C        3.0481699535   -1.7308117172    1.8896379730
C        1.9152676846   -1.3026162110    2.6081872360
C        4.0556399496   -2.6351432427    2.4502794946
C        0.5369951482   -2.4342604530    4.1958307082
N        5.0740016746   -3.1765250887    1.7732990715
N        5.1886124683   -3.8692430870    3.9348659082
N        4.1232513803   -3.0507143636    3.7421688132
O        1.7576698560   -1.7273774199    3.9196030488
H        2.4506491911   -0.0539618858   -1.0293289218
H        0.4644892906    0.7089402123    0.2770061463
H        4.0972397841   -1.6016075482    0.0275373360
H        0.1426617773   -0.0829663432    2.6074730724
H        6.6113203703   -4.4954093902    2.5088303929
H        0.6073347933   -2.7723181914    5.2313443580
H        0.4340188986   -3.2968153734    3.5281528183
H       -0.3363058869   -1.7827199148    4.0907101687
H        3.5005866577   -2.7901559462    4.4965645874
22   
torsion grid (75,)
C        2.2937406045   -0.3955097433   -0.0272431717
C        1.2069963323    0.0915439961    0.7104289553
C        3.1927915735   -1.2816608673    0.5602859774
C        1.0228709229   -0.3197943252    2.0314917079
C        5.6172784145   -3.9734771991    2.7496164369
C        3.0220345939   -1.7078320110    1.8909063030
C        1.9188832288   -1.2184576532    2.6152516599
C        4.0033528313   -2.6321899827    2.4650143751
C        0.6605360972   -2.5445489328    4.1258292785
N        4.9659623370   -3.2646791340    1.7864958832
N        5.1334824652   -3.8291452144    3.9813439108
N        4.1010147946   -2.9717138986    3.7772056602
O        1.7364593948   -1.6076894128    3.9371823671
H        2.4421542127   -0.0768618680   -1.0551436868
H        0.5108095345    0.7952450541    0.2621847466
H        4.0451101398   -1.6643062479    0.0081708794
H        0.1947071090    0.0588938449    2.6241108101
H        6.4662091660   -4.6133688125    2.5462524426
H        0.6199218273   -2.7577547726    5.1957278113
H        0.8523915889   -3.4687595865    3.5681593844
H       -0.2938456462   -2.1154220523    3.8027048233
H        3.5264841656   -2.6299181568    4.5378433918
22   
torsion grid (90,)
C        2.2723655183   -0.3795518469   -0.0346679679
C        1.2168216302    0.1637284885    0.7082477180
C        3.1408457422   -1.2959167244    0.5542857621
C        1.0269614521   -0.2292153284    2.0348971358
C        5.5096154096   -4.0091503546    2.7895318641
C        2.9688327046   -1.6960456586    1.8920670722
C        1.8872036978   -1.1610648005    2.6176198740
C        3.9344379518   -2.6281140937    2.4803356608
C        0.7995606252   -2.6568120677    4.0891695046
N        4.8435766565   -3.3398132178    1.8076841523
N        5.0851243551   -3.7660779260    4.0273427816
N        4.0756127711   -2.8848765413    3.8077278752
O        1.6803020625   -1.5261158148    3.9437472115
H        2.4236566357   -0.0791200722   -1.0676564147
H        0.5472796679    0.8921183109    0.2588418342
H        3.9738770865   -1.7150848618   -0.0008802753
H        0.2179273648    0.1791245347    2.6341568439
H        6.3247277565   -4.6941698370    2.5950983444
H        0.7129837256   -2.8467914770    5.1607888491
H        1.2107888697   -3.5402338389    3.5871463382
H       -0.1885713506   -2.4284894789    3.6744521762
H        3.5551073968   -2.4663145065    4.5692941554
22   
torsion grid (105,)
C        2.2737987799   -0.3561769984   -0.0460800731
C        1.2464510349    0.2373908753    0.6968859743
C        3.0961573378   -1.3138663304    0.5445662841
C        1.0255525280   -0.1574726893    2.0186541743
C        5.4086000665   -4.0353868222    2.8349787799
C        2.9007149356   -1.7070404217    1.8804090651
C        1.8254915474   -1.1437988251    2.5967405809
C        3.8582692177   -2.6353357678    2.4883020466
C        0.9102218487   -2.7611829234    4.0684504187
N        4.7073969122   -3.4319652356    1.8340744150
N        5.0610973869   -3.6719486418    4.0670463212
N        4.0672227285   -2.7785892475    3.8240475840
O        1.5800781840   -1.4932160779    3.9194802344
H        2.4452521311   -0.0583007314   -1.0766261277
H        0.6188345247    1.0037993401    0.2502012225
H        3.9191550476   -1.7604537112   -0.0043753849
H        0.2294560155    0.2790554444    2.6149645177
H        6.1914699283   -4.7616766456    2.6587625914
H        0.8156648821   -2.9349387752    5.1420424754
H        1.4832475928   -3.5750018565    3.6125097642
H       -0.0855996492   -2.7165277197    3.6131309747
H        3.5976283103   -2.2886857487    4.5764034428
22   
torsion grid (120,)
C        2.2839882043   -0.2625808722   -0.1455845479
C        1.3003569609    0.3925000131    0.6044561189
C        3.0492388014   -1.2669197983    0.4443346565
C        1.0508661599    0.0003056198    1.9215310254
C        5.3074719501   -3.9975530775    2.7842295060
C        2.8334938574   -1.6503290738    1.7797560584
C        1.7726570390   -1.0507348008    2.4910374125
C        3.7887370065   -2.5723744924    2.4022237399
C        1.0212816499   -2.7167320629    4.0328003370
N        4.5533665601   -3.4703894911    1.7775209828
N        5.0716335434   -3.4913249661    3.9916560876
N        4.0991803875   -2.5802716278    3.7261790267
O        1.4893546011   -1.3710106709    3.8105989506
H        2.4732133911    0.0284497806   -1.1748919180
H        0.7250674132    1.2032655592    0.1656354807
H        3.8546253988   -1.7490040931   -0.1009424158
H        0.2779060594    0.4765588249    2.5175940423
H        6.0457780883   -4.7738750258    2.6305102956
H        0.9598362311   -2.8418040250    5.1153200209
H        1.6969228126   -3.4673769358    3.6163615179
H        0.0254840332   -2.8401430842    3.5918487685
H        3.7025048466   -2.0059518850    4.4606878515
22   
torsion grid (135,)
C        2.2475306242   -0.1748676363   -0.0750257844
C        1.2632778161    0.4772177550    0.6790947785
C        2.9844254127   -1.2051999644    0.5033754111
C        0.9843787470    0.0574594845    1.9794238290
C        5.0916293308   -4.0903001354    2.8432050354
C        2.7451462077   -1.6134725860    1.8282913872
C        1.6857861053   -1.0152411283    2.5425651337
C        3.6813212099   -2.5626938043    2.4421472404
C        1.1551544174   -2.7717488943    4.1217139103
N        4.2670794224   -3.6122962123    1.8655299598
N        5.0650028376   -3.4123727596    3.9869134247
N        4.1595549208   -2.4365901757    3.7088837155
O        1.3260345326   -1.3710493381    3.8245241562
H        2.4535149653    0.1344926434   -1.0955942513
H        0.7011314851    1.3020558221    0.2493296121
H        3.7851813739   -1.6929433904   -0.0442166527
H        0.1985427834    0.5216890640    2.5678581998
H        5.7243823295   -4.9590888428    2.7153435829
H        0.2183057216   -2.8602323192    4.6777904629
H        1.9786678843   -3.1436049705    4.7354903994
H        1.0921901013   -3.3654943182    3.2059267197
H        3.9392177648   -1.7253056200    4.3955732405
22   
torsion grid (150,)
C        2.3268418375   -0.1326819743   -0.0618586060
C        1.2802402290    0.4656298563    0.6537992253
C        3.0417080841   -1.1729019336    0.5230046332
C        0.9255649876   -0.0162386654    1.9103846136
C        4.9676166533   -4.2041972708    2.8863217971
C        2.7261993762   -1.6464919983    1.8114879982
C        1.6092297432   -1.1023491750    2.4804739502
C        3.6543502282   -2.6072795271    2.4297115600
C        1.2387813919   -2.8857559475    4.0974451897
N        4.0844943946   -3.7679938204    1.9388861046
N        5.1227184934   -3.3960919382    3.9302080373
N        4.2764954266   -2.3778726230    3.6174156537
O        1.1288489341   -1.5092781054    3.6995875147
H        2.5929557342    0.2233673619   -1.0527334317
H        0.7281688215    1.2972495619    0.2238651090
H        3.8844188692   -1.6237464002    0.0070951543
H        0.0900281296    0.4045426158    2.4618325270
H        5.5082724470   -5.1387498851    2.8093347420
H        0.3604915479   -3.0849105326    4.7152167162
H        2.1415904768   -3.0640761863    4.6857375024
H        1.2323438014   -3.5510526001    3.2293457885
H        4.2040545566   -1.5675607658    4.2206748054
22   
torsion grid (165,)
C        2.0503082167   -0.8317289442   -0.2402708844
C        0.8943688003   -0.2754989163    0.3252165308
C        2.9289286641   -1.5278729579    0.5802203525
C        0.6290232773   -0.4487728466    1.6769033370
C        5.3756416192   -2.9297245656    3.9791767564
C        2.6927970007   -1.7048350507    1.9628054902
C        1.4999210428   -1.1780864168    2.5105547143
C        3.7611117181   -2.3834399509    2.7185881720
C        1.5858008696   -2.2240853919    4.7257179655
N        4.4602763080   -1.9388992929    3.7630093000
N        5.3028205137   -3.9594674474    3.1425803904
N        4.2669691927   -3.5902648127    2.3426507953
O        1.0465078712   -1.2844068635    3.7900141430
H        2.2714088451   -0.7035412331   -1.2956504847
H        0.1977601495    0.2877607441   -0.2901138542
H        3.8565193946   -1.9143488888    0.1655513752
H       -0.2717624897   -0.0453393070    2.1295575840
H        6.1177603637   -2.8910082928    4.7662090839
H        0.8342791691   -2.3021689584    5.5135264851
H        2.5333532094   -1.8728381073    5.1356204696
H        1.7260779103   -3.2076277264    4.2636466092
H        3.9468866514   -4.2057952800    1.6052385222
22   
torsion grid (180,)
C        2.1093598512   -0.7476722468   -0.2194487424
C        0.8904458444   -0.2991147498    0.3081766904
C        2.9856764156   -1.4337914280    0.6119569062
C        0.5698583176   -0.5564105178    1.6338703564
C        5.3686184204   -2.9956532879    3.9534728407
C        2.6898920279   -1.7004889378    1.9681016164
C        1.4447198545   -1.2681176650    2.4797054317
C        3.7461546144   -2.4064498628    2.7226520642
C        1.6275044805   -2.1677207039    4.7563927535
N        4.5048078790   -1.9622692605    3.7243056167
N        5.2090499754   -4.0509310501    3.1614643219
N        4.1705345454   -3.6528140819    2.3793331280
O        0.9258432590   -1.4699409950    3.7229232098
H        2.3757105685   -0.5504610637   -1.2535131851
H        0.1901259768    0.2500523421   -0.3156789442
H        3.9508889993   -1.7549311533    0.2285897596
H       -0.3751169874   -0.2298120986    2.0574409054
H        6.1371561977   -2.9701293126    4.7153236239
H        0.9172476580   -2.2319007722    5.5823162113
H        2.5230189789   -1.6262063379    5.0649228864
H        1.9019997952   -3.1797576220    4.4396342334
H        3.7968644459   -4.2709077676    1.6695495879
