19   
torsion grid (-165,)
C        0.4296610827   -1.5120792845    0.5308311202
C        0.6675375803   -2.0385671115   -0.8682452513
C       -0.3015537405    0.2851917320    2.0347468668
C        0.0256805093    2.5141119111    0.0920554571
N        0.6490193991    0.8519405170   -1.8357194776
N        0.2031662362   -0.1306464083    0.7095544763
O        0.4673041773   -2.2576032490    1.5006255164
O       -1.7716917187    0.7027880238   -0.7722080754
S       -0.3131826974    0.9039001094   -0.6377660605
H        1.4864582826   -1.5085944875   -1.3578946820
H        0.9055208640   -3.0981610305   -0.7764604942
H       -0.2330448511   -1.9328461424   -1.4820921052
H        0.2916949380    1.1131593308    2.4282080832
H       -1.3582226513    0.5654186190    1.9791893027
H       -0.1988685356   -0.5696906177    2.7004616177
H       -0.6482370178    2.6840939451    0.9284417113
H        1.0725727147    2.5588158249    0.3912496129
H       -0.1735597258    3.2223002154   -0.7126490634
H        0.3324597531    0.1788055498   -2.5334016677
19   
torsion grid (-150,)
C        0.4789536538   -1.4844832772    0.5348890103
C        0.7967539391   -2.0056021303   -0.8499929409
C       -0.4357870555    0.2482163186    2.0225011417
C        0.1596055491    2.4957974379    0.0640338286
N        0.4484960501    0.7771215179   -1.8912320773
N        0.0987590391   -0.1375475970    0.6989564828
O        0.5707858014   -2.2105900520    1.5164315578
O       -1.8796032020    0.8823522027   -0.6362270445
S       -0.4033330357    0.9301579376   -0.6215956096
H        1.5254260166   -1.3760335524   -1.3622160481
H        1.1831180018   -3.0175348615   -0.7281939888
H       -0.1095676970   -2.0486949722   -1.4630618496
H        0.2218623875    0.9743749154    2.5078494949
H       -1.4437016289    0.6575075071    1.9182649846
H       -0.4779197967   -0.6501301309    2.6356438521
H       -0.3953779002    2.7119364409    0.9742082780
H        1.2321467039    2.4336336932    0.2458109275
H       -0.0601826988    3.2359210306   -0.7059210194
H        0.0222804717    0.1159350186   -2.5412220927
19   
torsion grid (-135,)
C        0.4839281252   -1.4307491314    0.5407032019
C        1.1233473450   -1.8456260145   -0.7674387822
C       -0.6098067475    0.1373467802    2.0362906120
C        0.3131400271    2.4646222431   -0.1250123463
N        0.0057530548    0.6171830646   -1.9542190291
N        0.0319928669   -0.1067831410    0.7244855293
O        0.4023155216   -2.2126830531    1.4793211280
O       -1.9990042941    1.1012723624   -0.2933911362
S       -0.5561389364    0.9546089509   -0.5663826940
H        1.6654449447   -1.0396501917   -1.2589295000
H        1.7828662787   -2.6849582145   -0.5417192929
H        0.3536574439   -2.2018483376   -1.4598334068
H        0.0999316648   -0.1284223666    2.8198736181
H       -0.8752702119    1.1896592518    2.1262984570
H       -1.5146689221   -0.4630456092    2.1503417798
H        0.1032850516    2.7061160055    0.9153375789
H        1.3781991595    2.3079925700   -0.2905933988
H       -0.0761291427    3.2391021092   -0.7869697272
H       -0.5801286295   -0.0717998311   -2.4292357043
19   
torsion grid (-120,)
C        0.5005837133   -1.3989620382    0.5437307159
C        1.2162225103   -1.7403224433   -0.7467735495
C       -0.7198317714    0.0901585692    2.0404187979
C        0.4315615877    2.3848346386   -0.1893710358
N       -0.1834584948    0.5477534388   -1.9584365656
N       -0.0784620717   -0.1285977240    0.7257859443
O        0.4598584054   -2.1978859458    1.4715180627
O       -2.0116414780    1.2753246594   -0.1874287000
S       -0.6148088205    0.9702133283   -0.5484057466
H        1.7137648383   -0.8893461538   -1.2088250976
H        1.9304116230   -2.5292282495   -0.5060429959
H        0.5043799220   -2.1378684327   -1.4761316226
H       -0.0105411073   -0.1921250536    2.8184954988
H       -0.9863645880    1.1410456948    2.1459594394
H       -1.6249737512   -0.5124451623    2.1426897783
H        0.2983074520    2.6502157405    0.8588710433
H        1.4653522992    2.1150505201   -0.4019782070
H        0.0956063898    3.1930548916   -0.8402529011
H       -0.8532520588   -0.1085328311   -2.3648959717
19   
torsion grid (-105,)
C        0.5060560999   -1.3597929140    0.5448896022
C        1.3099142321   -1.5913313629   -0.7188403263
C       -0.8337871863    0.0209119721    2.0561027254
C        0.5611118762    2.2800236789   -0.2903108939
N       -0.4015244920    0.4735958392   -1.9391535921
N       -0.1718030114   -0.1440547539    0.7445021419
O        0.4795725068   -2.2000164945    1.4362952104
O       -1.9765947096    1.4646599856   -0.0554688719
S       -0.6612361487    0.9858613295   -0.5175437169
H        1.7778406219   -0.6897907093   -1.1128800828
H        2.0640660911   -2.3402848083   -0.4723694329
H        0.6693804872   -1.9905549892   -1.5088981814
H       -0.1319972498   -0.2856274055    2.8319141681
H       -1.1117359946    1.0647620615    2.1921296346
H       -1.7331515970   -0.5955576275    2.1244265928
H        0.5241076674    2.5850062622    0.7555967372
H        1.5438185028    1.8905959136   -0.5543303710
H        0.2772300574    3.1032702986   -0.9472045638
H       -1.1585531541   -0.1393388293   -2.2499298922
19   
torsion grid (-90,)
C        0.5337174425   -1.3048854018    0.5640363250
C        1.3272611204   -1.5074841138   -0.7112581734
C       -0.9270829304   -0.0411803904    2.0573038226
C        0.6682288439    2.1906275761   -0.3335013770
N       -0.5152055145    0.4691860526   -1.9297276640
N       -0.2687658932   -0.1655795182    0.7391284681
O        0.5975758444   -2.1169165329    1.4800183652
O       -1.9195020617    1.6237972480   -0.0029461603
S       -0.6755663896    1.0126958705   -0.5050613736
H        1.7930875466   -0.5962928123   -1.0875414000
H        2.0884023856   -2.2557409914   -0.4870916567
H        0.6819886900   -1.8812504680   -1.5089756845
H       -0.1673990936   -0.0789326339    2.8406014170
H       -1.4700500363    0.9000180443    2.0959327575
H       -1.6258675157   -0.8669300551    2.2079898579
H        0.6694491824    2.5267359112    0.7035768929
H        1.6095200390    1.7087658636   -0.5948631936
H        0.4535958427    3.0171589523   -1.0121434459
H       -1.3206729034   -0.1014551536   -2.1965508900
19   
torsion grid (-75,)
C        0.5867860583   -1.2426475387    0.5830309959
C        1.2927931303   -1.4993068929   -0.7334475794
C       -0.9848830834   -0.0628915322    2.0342189097
C        0.7295466222    2.1176017978   -0.2926166896
N       -0.5371155206    0.5170340331   -1.9447521186
N       -0.3720848270   -0.2207439374    0.6982411423
O        0.8143131361   -1.9407069727    1.5645684752
O       -1.8916522584    1.6950891271    0.0028509063
S       -0.6813228754    1.0259891377   -0.5058114151
H        1.7542738913   -0.6091734790   -1.1627704233
H        2.0536858054   -2.2545812297   -0.5358043097
H        0.5894650336   -1.8713188839   -1.4811210966
H       -0.2340419903    0.2466498713    2.7672754663
H       -1.7803778220    0.6750038775    1.9688051182
H       -1.3963138595   -1.0235814616    2.3462883228
H        0.7387181434    2.4309475509    0.7516806342
H        1.6450118768    1.5903950800   -0.5570427845
H        0.5701019900    2.9703538323   -0.9537383923
H       -1.3641888515   -0.0117749326   -2.2309282745
19   
torsion grid (-60,)
C        0.6570508710   -1.4735585155    0.4583352965
C        0.8700305668   -2.3576812528    1.6758743282
C        0.0345646187    0.3472818570    2.0679251046
C        1.1001710559    0.8479583672   -1.7563673805
N       -1.4316397356    0.1767251404   -1.4902989363
N        0.2640966673   -0.1637248538    0.7096339027
O        0.8469149278   -1.8925954913   -0.6788838094
O       -0.4758569141    2.1574272186   -0.0173673056
S       -0.3207805204    0.8375721263   -0.6670183761
H       -0.0128714555   -2.3813510941    2.3212176731
H        1.0906261476   -3.3634777280    1.3189299616
H        1.7113732421   -2.0001783481    2.2784270851
H        0.9097898532    0.1526220168    2.6922863487
H       -0.1143067717    1.4240207698    2.0084620350
H       -0.8486392040   -0.1069211780    2.5305864418
H        1.9522243269    1.1887432686   -1.1683418016
H        1.2449040260   -0.1581282379   -2.1412241125
H        0.8562296453    1.5626265148   -2.5438724983
H       -2.3343104611    0.2442902351   -1.0151181355
19   
torsion grid (-45,)
C        0.7033563904   -1.4524356525    0.4675564739
C        0.9770319088   -2.3174461470    1.6875536730
C       -0.1010742053    0.2984187599    2.0735721251
C        1.0847983766    0.7404363704   -1.7994538019
N       -1.4843489171    0.3377135116   -1.4600019566
N        0.1761912917   -0.1951636910    0.7181561492
O        0.9485615819   -1.8519547779   -0.6670798073
O       -0.2899746273    2.1993998771   -0.0043221011
S       -0.2910683974    0.8722421230   -0.6577521624
H        0.0905415703   -2.4237914915    2.3192563911
H        1.2931922585   -3.2979604116    1.3321702963
H        1.7733493350   -1.8864273864    2.3031181412
H        0.7790952104    0.1822476314    2.7109529954
H       -0.3348230153    1.3601339504    2.0118251530
H       -0.9482739180   -0.2292472872    2.5242153409
H        2.0074907725    0.8248481496   -1.2261303834
H        1.0184243039   -0.2103025527   -2.3174249888
H        0.9622314671    1.5951412559   -2.4675637952
H       -2.3651305006    0.4957985834   -0.9654619210
19   
torsion grid (-30,)
C        0.8100089779   -1.4284108626    0.4927522816
C        1.0742630305   -2.2742407199    1.7294213917
C       -0.2547593097    0.2260051886    2.0434740458
C        1.0365141060    0.6380563092   -1.8799831040
N       -1.5277759843    0.5289060452   -1.3630152917
N        0.1748878328   -0.2190103177    0.7109844202
O        1.1528112202   -1.8111683119   -0.6232432870
O       -0.0366672715    2.2250719494    0.0149473922
S       -0.2277505198    0.9126964210   -0.6398030239
H        0.1639220813   -2.4475937186    2.3100454516
H        1.4802749957   -3.2281149398    1.3934265505
H        1.8017527798   -1.7881510769    2.3877287514
H        0.5626077473    0.1352626099    2.7624721439
H       -0.5256524164    1.2797803346    1.9886586096
H       -1.1160998893   -0.3510147832    2.3958010861
H        2.0057271142    0.5874081774   -1.3872597016
H        0.8129124293   -0.2788168514   -2.4138528123
H        0.9625032304    1.5238562851   -2.5147812220
H       -2.3499092683    0.8111290765   -0.8245878607
19   
torsion grid (-15,)
C        1.0118407927   -1.3657731173    0.5440435272
C        1.1411834221   -2.2511143701    1.7759501405
C       -0.4121284692    0.1315280995    1.9599797894
C        0.9309097936    0.5444161756   -1.9805912566
N       -1.5475729707    0.7212678794   -1.1322545043
N        0.2914799114   -0.1976665568    0.7139076359
O        1.5359950988   -1.6874386552   -0.5199454423
O        0.2762305069    2.2608073169   -0.0040885163
S       -0.1253847456    0.9692930130   -0.5995072582
H        0.1664620456   -2.5074003552    2.2007865263
H        1.6551345520   -3.1616385098    1.4687850390
H        1.7285067586   -1.7567380695    2.5564047214
H        0.2299999705   -0.0634360291    2.8194367481
H       -0.6357209501    1.1994493956    1.9669662799
H       -1.3430831057   -0.4368189528    2.0622829419
H        1.9622523003    0.5113411654   -1.6385736320
H        0.6206916171   -0.4114983933   -2.3904595535
H        0.7604087525    1.3678297913   -2.6778428610
H       -2.2476343946    1.1752409875   -0.5420945040
19   
torsion grid (0,)
C        1.1570231323   -1.2827050533    0.6023373357
C        1.1845997534   -2.2357200314    1.7899587351
C       -0.5218769025    0.0648370441    1.8933477738
C        0.8374879745    0.4552656573   -2.0241458438
N       -1.5385278460    0.8683164976   -0.9679351244
N        0.3328438660   -0.1794630027    0.7258620587
O        1.8457711721   -1.5006891092   -0.3919080653
O        0.5009841700    2.2724562803   -0.0563460479
S       -0.0565268214    1.0072665668   -0.5741926024
H        0.1818144900   -2.5554130498    2.0868774900
H        1.7714267994   -3.1045470906    1.4925950397
H        1.6621336874   -1.7681364692    2.6570999424
H       -0.0115456659   -0.2519244553    2.8016612651
H       -0.6957822890    1.1392672594    1.9885858097
H       -1.4831546765   -0.4535157985    1.8098822333
H        1.8999844579    0.4530939362   -1.7998626541
H        0.4944334892   -0.5356768412   -2.3097318145
H        0.5718342311    1.2055271860   -2.7718934244
H       -2.1333521357    1.4434112884   -0.3690062850
19   
torsion grid (15,)
C        1.2472663658   -1.1977956782    0.6537452321
C        1.2385762999   -2.2099235436    1.7916196164
C       -0.6247790954   -0.0049151651    1.8389125341
C        0.7507398906    0.3652978743   -2.0413653000
N       -1.5044155096    1.0414077471   -0.8601487839
N        0.3288706682   -0.1678319876    0.7369109673
O        2.0437834109   -1.3073817824   -0.2756611980
O        0.7192130201    2.2532029525   -0.1091963577
S        0.0056150909    1.0424420298   -0.5573647692
H        0.2392764017   -2.6098546192    1.9847425339
H        1.9075255892   -3.0212413666    1.5051949712
H        1.6105136858   -1.7601308171    2.7179312686
H       -0.2118588988   -0.4329234120    2.7502383861
H       -0.7766613439    1.0605634502    2.0319797087
H       -1.5889395936   -0.4718117302    1.6132096915
H        1.8286385440    0.3663479720   -1.9167036806
H        0.3756497946   -0.6417081019   -2.2120639611
H        0.4139829215    1.0501149225   -2.8218380818
H       -2.0034263557    1.6877920702   -0.2469569563
19   
torsion grid (30,)
C        1.3043095113   -1.1210985209    0.7007233776
C        1.3196062483   -2.1609704156    1.8128217669
C       -0.7307809441   -0.0752876399    1.7770406413
C        0.6566030731    0.2766074356   -2.0509031742
N       -1.4530577310    1.2195975620   -0.7813508206
N        0.2966725682   -0.1744843767    0.7367085437
O        2.1585962014   -1.1368584299   -0.1823062568
O        0.9276430155    2.1886819797   -0.1592231124
S        0.0613927574    1.0617479053   -0.5489249935
H        0.3661548156   -2.6907504340    1.8954351727
H        2.1094219455   -2.8730207998    1.5743813161
H        1.5407973266   -1.7013049023    2.7812752327
H       -0.4692171939   -0.7191979459    2.6131398990
H       -0.7793417293    0.9495652234    2.1586907617
H       -1.7120805759   -0.3617895060    1.3882405640
H        1.7389708565    0.2260113257   -2.0000256446
H        0.2177039459   -0.7162391208   -2.1383341162
H        0.2960573452    0.9330661566   -2.8444318675
H       -1.8498805501    1.9173753184   -0.1497714685
19   
torsion grid (45,)
C        1.3639206205   -1.0366851369    0.7388915496
C        1.4327292344   -2.0136329224    1.9022130964
C       -0.7936575760   -0.2170236958    1.7244959243
C        0.5197715062    0.1753232450   -2.0758322727
N       -1.4159926173    1.3744421725   -0.7248563545
N        0.2605376626   -0.1971200148    0.7082949130
O        2.2436613557   -1.0060168547   -0.1167122459
O        1.0851215665    2.0923785965   -0.2639059877
S        0.0839194053    1.0574760167   -0.5726672576
H        0.6401950207   -2.7658036865    1.8300381626
H        2.4001282942   -2.5131153307    1.8540028326
H        1.3277629713   -1.5081754778    2.8662766621
H       -1.0422148581   -1.2441188417    1.9965055825
H       -0.5008954205    0.3384645056    2.6220442712
H       -1.6908785856    0.2340625509    1.2969436669
H        1.5682672360   -0.0973481429   -2.0122031535
H       -0.1244325836   -0.6991442041   -2.1663609461
H        0.3147956759    0.8893295537   -2.8749187398
H       -1.6731680219    2.1783584825   -0.1490638817
19   
torsion grid (60,)
C        1.3971124934   -1.0053268703    0.7618427332
C        1.4951594833   -1.9306414614    1.9630118600
C       -0.8602436394   -0.3281257067    1.6300642868
C        0.4132460711    0.1570331747   -2.0933672587
N       -1.3359075161    1.5163213337   -0.6521328498
N        0.2251399068   -0.2656332336    0.6485299672
O        2.2974805122   -0.9348088461   -0.0682858652
O        1.2382153455    1.9752139309   -0.2643814655
S        0.1312729515    1.0541231737   -0.5650039310
H        0.7677215187   -2.7457874877    1.8887691302
H        2.4999336568   -2.3526042676    1.9736724785
H        1.3081113585   -1.4008008034    2.9013349041
H       -1.0920938434   -1.3681302233    1.8673882361
H       -0.6121629198    0.2090239369    2.5524924140
H       -1.7489296637    0.1202376198    1.1827695478
H        1.3807435208   -0.3325835711   -2.0143108678
H       -0.4052134923   -0.5503109294   -2.2240980168
H        0.3984397867    0.9156140917   -2.8774847718
H       -1.4984546446    2.3088369541   -0.0276247098
19   
torsion grid (75,)
C        0.0980582858   -1.5964858841    0.5124769150
C        0.0116818094   -2.2641074631   -0.8437511986
C        0.2076412770    0.3454240388    1.9848699641
C       -2.0767216857    0.8543800051   -0.6320325331
N        0.0135657094    2.3822828901   -0.2298465674
N        0.1569645135   -0.1911019790    0.6109184776
O        0.1577014695   -2.2536252682    1.5449305156
O        0.2304977027    0.3432284547   -1.9095564296
S       -0.2815662335    0.9399915259   -0.6652345341
H        0.8583716507   -1.9836539343   -1.4716573955
H        0.0049609303   -3.3395292017   -0.6661133788
H       -0.8895828323   -1.9803813693   -1.3927736181
H        1.0931427714   -0.0490210621    2.4852746171
H        0.2651223461    1.4313494096    1.9337165159
H       -0.6747221287    0.0407721829    2.5554760977
H       -2.3667650643   -0.1775565749   -0.8282836839
H       -2.4241133504    1.1849177924    0.3466864157
H       -2.4410772357    1.5182715304   -1.4169126075
H        0.9989737864    2.6135699399   -0.3763490688
19   
torsion grid (90,)
C        0.1890104942   -1.6101174903    0.5115608359
C        0.0266372067   -2.2987230361   -0.8264022401
C        0.1324312145    0.3324039896    1.9916577788
C       -2.0966796982    0.9508567637   -0.6531257095
N        0.0758224339    2.3498103950   -0.2540510477
N        0.0442948638   -0.2138197415    0.6236176113
O        0.4414321499   -2.2452982051    1.5286840186
O        0.1859426101    0.2768069757   -1.9026423268
S       -0.3008817539    0.9213310565   -0.6723545630
H        0.8496054157   -2.0423234485   -1.4954386170
H        0.0241667656   -3.3708950857   -0.6290202260
H       -0.8943670415   -2.0124905161   -1.3388947626
H        1.1102530086    0.1007843673    2.4186085904
H        0.0011684163    1.4125581916    1.9476626975
H       -0.6361863736   -0.1187003811    2.6241828152
H       -2.4465880773   -0.0632513565   -0.8466878957
H       -2.4297273686    1.3061293198    0.3217023858
H       -2.4139234471    1.6320500116   -1.4436835423
H        1.0797229026    2.5116132231   -0.3635372993
19   
torsion grid (105,)
C        0.2500426787   -1.6210900471    0.4986120296
C        0.0787997359   -2.3376384255   -0.8230047934
C        0.0464847178    0.3097831195    1.9810731210
C       -2.1148387412    1.0660935493   -0.6325348894
N        0.1577636892    2.3005733756   -0.2738916289
N       -0.0683511132   -0.2533425437    0.6211704752
O        0.6268121706   -2.2148400339    1.5018729585
O        0.0925558849    0.2149031543   -1.9114081112
S       -0.3278106465    0.9010723705   -0.6788225889
H        0.8829011122   -2.0722940590   -1.5116017840
H        0.1168446654   -3.4058364938   -0.6069714200
H       -0.8595913176   -2.0854191041   -1.3200764156
H        1.0843256149    0.2832712364    2.3227086192
H       -0.2978458295    1.3428666342    1.9708226261
H       -0.5592782340   -0.2856672879    2.6661063297
H       -2.5391245874    0.0848778902   -0.8460845699
H       -2.4108543045    1.4192268608    0.3548090841
H       -2.3893358318    1.7896523137   -1.4010239919
H        1.1726340580    2.3825325237   -0.3699165468
19   
torsion grid (120,)
C        0.2951780902   -1.6309638410    0.4890696991
C        0.1882983842   -2.3712795553   -0.8256392922
C       -0.0676033537    0.2813231114    1.9590343431
C       -2.1312921985    1.2007569553   -0.5624859820
N        0.2609773513    2.2206065162   -0.3323806207
N       -0.1690924743   -0.3017967707    0.6056436732
O        0.7311223331   -2.1763230122    1.4956010456
O       -0.0837277007    0.1375296126   -1.9380960617
S       -0.3722086432    0.8685267392   -0.6933361892
H        0.9760314703   -2.0537921393   -1.5116817266
H        0.3089708161   -3.4310804734   -0.5982351607
H       -0.7621846824   -2.1929567890   -1.3298828321
H        0.9752948893    0.3575533401    2.2768327795
H       -0.5079221241    1.2773662623    1.9590656952
H       -0.5998479876   -0.3636956955    2.6591833695
H       -2.6525598837    0.2629209319   -0.7542453311
H       -2.3544731954    1.5828425363    0.4327342746
H       -2.3674475415    1.9463847562   -1.3225076961
H        1.2746201726    2.2048025481   -0.4668354840
19   
torsion grid (135,)
C        0.3314366167   -1.6335382895    0.4841475431
C        0.3049290610   -2.3821928290   -0.8294800951
C       -0.1835872700    0.2437187880    1.9426673863
C       -2.1339576726    1.3328427515   -0.4895658770
N        0.3582466297    2.1121535623   -0.4001269441
N       -0.2747634140   -0.3584673665    0.5955008933
O        0.8139331690   -2.1306055739    1.4940551744
O       -0.2852022813    0.0609083157   -1.9561078884
S       -0.4250510075    0.8252597121   -0.7051915383
H        1.0562997789   -1.9863729685   -1.5161886688
H        0.5360778945   -3.4234053488   -0.6015147055
H       -0.6585758147   -2.3003556336   -1.3329155908
H        0.8560091282    0.4058088113    2.2373015224
H       -0.7033856704    1.2003194278    1.9531628455
H       -0.6501565533   -0.4355097397    2.6565766072
H       -2.7507334313    0.4382038275   -0.5717413679
H       -2.2604017546    1.8204360360    0.4750981413
H       -2.3447166442    2.0321701338   -1.2995335228
H        1.3557329578    1.9973514169   -0.5943054115
19   
torsion grid (150,)
C        0.0759826401   -1.5845212732    0.4901166715
C       -0.1689971422   -2.2126888784   -0.8642588298
C        0.5021244151    0.3779898680    1.9212002721
C       -0.7958458311    2.3324205794   -0.0163470736
N        1.5695710358    1.5946112105   -0.8435967175
N        0.0528818228   -0.1768705259    0.6285244105
O        0.2673689660   -2.2776711879    1.4817155220
O       -0.5667919757    0.3684014963   -1.8268080724
S        0.1653310009    0.9804656960   -0.7044157673
H        0.5997477005   -1.9284682561   -1.5871427026
H       -0.1522425315   -3.2925741453   -0.7169724741
H       -1.1246134272   -1.8963790734   -1.2835853652
H        1.3428130014    1.0598646841    1.7671230526
H       -0.3181652255    0.9003880585    2.4216072530
H        0.8211215585   -0.4535738510    2.5466026729
H       -1.7504406241    1.9264907423    0.3183678286
H       -0.2467641037    2.8103774910    0.7916376988
H       -0.9387365797    3.0282058184   -0.8442281240
H        2.1983698990    0.9758689937   -1.3606133682
19   
torsion grid (165,)
C        0.1462726334   -1.5828475170    0.4836243201
C       -0.0626263386   -2.1964466856   -0.8838120734
C        0.3818994404    0.3798860223    1.9436605817
C       -0.7209652527    2.3890465853    0.0232549278
N        1.5163961880    1.4405449914   -0.9300623608
N       -0.0608225551   -0.1915035031    0.6556618204
O        0.4455843400   -2.2745777204    1.4483560913
O       -0.7732172641    0.3932423727   -1.7677388330
S        0.0748627163    0.9497536626   -0.6981394749
H        0.6783627340   -1.8362691283   -1.6034772594
H        0.0446960968   -3.2748951550   -0.7680370127
H       -1.0423279721   -1.9438195284   -1.2900622264
H        1.3112981811    0.9457693529    1.8211083671
H       -0.3967358362    1.0216091650    2.3614534020
H        0.5593352286   -0.4505015732    2.6239556799
H       -1.6771847393    2.0750469738    0.4417128023
H       -0.0726277084    2.8469267578    0.7662734400
H       -0.8737134219    3.0658063119   -0.8186341744
H        2.0542281293    0.7755660622   -1.4901711302
19   
torsion grid (180,)
C        0.2380751615   -1.5605204052    0.4767993577
C        0.0419680150   -2.1715071645   -0.8945766723
C        0.2524562743    0.3685578018    1.9716106847
C       -0.6308000339    2.4336477682    0.0546462057
N        1.4344142000    1.2857531648   -1.0370114528
N       -0.1595473578   -0.2135187584    0.6779163305
O        0.6700690776   -2.2199986042    1.4122403338
O       -0.9880438830    0.4251349992   -1.6965226990
S       -0.0238007795    0.9193854408   -0.6968543377
H        0.7564510227   -1.7627182604   -1.6165416406
H        0.2192500580   -3.2427071216   -0.7987146552
H       -0.9555123781   -1.9714843690   -1.2863001481
H        1.2351175281    0.8491888951    1.9031794641
H       -0.4957226304    1.0836930466    2.3149934005
H        0.3167641458   -0.4476814701    2.6879064952
H       -1.5920749017    2.2280553437    0.5253188998
H        0.1018487064    2.8290848875    0.7535341442
H       -0.7574902653    3.1127697851   -0.7897086278
H        1.8692926396    0.5872024674   -1.6429881955
