15   
torsion grid (-75,)
C        3.2210347553   -0.7238366431   -0.7636191088
C        2.0130423392   -0.6396194825   -0.1139093968
C        3.9985135508   -1.8837116349    0.0255823456
C        0.8550054859    0.2952437435   -0.1521799261
N        1.9910762560   -1.9122879562    0.5705906277
N        3.3351723170   -1.6227664004    1.2819265557
N       -0.4054521405   -0.4622038113   -0.1866046560
O        4.8929391375   -2.6432817927   -0.2371299972
H        3.6773454597   -0.0142334393   -1.4435574884
H        1.0010058974    1.0081887743   -0.9771925732
H        0.8621854922    0.8772455856    0.7805696541
H        1.2870122859   -1.8629549761    1.3191092018
H        3.5060434177   -2.4623825638    1.8623463743
H       -0.5035637965   -0.9326998425   -1.0847986369
H       -1.1949996002    0.1728407471   -0.0903599300
15   
torsion grid (-60,)
C        3.2850440848   -0.6713424236   -0.6354458203
C        2.0485947478   -0.6298579852   -0.0487355462
C        4.0254454670   -1.8188213053    0.0420465920
C        0.8781261581    0.2874636765   -0.2055221757
N        1.9332257694   -1.8648827451    0.6645304818
N        3.2935246702   -1.8373890510    1.2845194627
N       -0.3789944150   -0.4667487543   -0.1047897267
O        5.0065876216   -2.4699245852   -0.2471926122
H        3.6998810659   -0.0047455621   -1.3800559875
H        1.0040829719    0.8727402958   -1.1286956022
H        0.8995929219    1.0025083421    0.6283850613
H        1.2573823172   -1.7382248721    1.4259665788
H        3.4393605372   -2.7661201180    1.7010612991
H       -0.4965064201   -1.0626972170   -0.9224138727
H       -1.1685216183    0.1747382830   -0.0823196631
15   
torsion grid (-45,)
C        3.3174041773   -0.5867905587   -0.5625364607
C        2.0477141877   -0.6122612418   -0.0616622816
C        4.0474820201   -1.7114096386    0.0734562141
C        0.8680339392    0.2862067237   -0.2941652175
N        1.8864322362   -1.8032591490    0.6763900717
N        3.2253101053   -1.9781980514    1.2231411587
N       -0.3870905875   -0.4242396356   -0.0149419131
O        5.1112960481   -2.2559685315   -0.1733118465
H        3.7281894076    0.0840906191   -1.3046507829
H        0.9438387131    0.7212437021   -1.3018638483
H        0.9400188614    1.1212099567    0.4143310829
H        1.2163870665   -1.6640825953    1.4371876436
H        3.3431040792   -2.9574602231    1.4957259692
H       -0.5744269368   -1.1087883611   -0.7454126563
H       -1.1646080734    0.2317718526   -0.0103753190
15   
torsion grid (-30,)
C        3.3298414145   -0.5455030373   -0.5219136978
C        2.0410752088   -0.6211354600   -0.0827896996
C        4.0779288057   -1.6417192529    0.1071668037
C        0.8548544677    0.2638954786   -0.3486903593
N        1.8722161975   -1.7699676685    0.6885498531
N        3.1901988989   -2.1018388927    1.1287994290
N       -0.3898263701   -0.3968384535    0.0673353511
O        5.2024015703   -2.0902953524   -0.0804175345
H        3.7427825463    0.1442218936   -1.2451312677
H        0.8798303508    0.5827246612   -1.4014312963
H        0.9695472992    1.1710661072    0.2561792007
H        1.2196044887   -1.6373532869    1.4624989203
H        3.2873945916   -3.1015952453    1.3019560504
H       -0.6283686326   -1.1411433359   -0.5857109739
H       -1.1579968145    0.2699494165    0.0552297489
15   
torsion grid (-15,)
C        3.3317773642   -0.5228176907   -0.5100586396
C        2.0337488369   -0.6329962610   -0.1147078663
C        4.0908275293   -1.5817247959    0.1490092732
C        0.8450463781    0.2464297292   -0.3981637695
N        1.8601263760   -1.7408937739    0.7030052521
N        3.1576028969   -2.1948029263    1.0375096351
N       -0.3891767163   -0.3626560213    0.1165250638
O        5.2538296341   -1.9544433591    0.0284951040
H        3.7503630525    0.1805043766   -1.2164022752
H        0.8299802365    0.4782031264   -1.4739451665
H        0.9928854344    1.1980220458    0.1244438776
H        1.2429817314   -1.5928268001    1.5004322304
H        3.2307823369   -3.2064828381    1.1029673699
H       -0.6655521825   -1.1478123181   -0.4703354871
H       -1.1480697150    0.3141739260    0.0874169651
15   
torsion grid (0,)
C        3.3467340801   -0.5657814108   -0.4644773972
C        2.0320968863   -0.6736747852   -0.1233161914
C        4.0877696600   -1.6064827757    0.2476693634
C        0.8633929012    0.2262188578   -0.4284699427
N        1.8374167472   -1.7378333642    0.7433657102
N        3.0935026317   -2.3139661707    0.9748670310
N       -0.3751260569   -0.3153046419    0.1491848658
O        5.2710157829   -1.9322663206    0.2182066808
H        3.7949446103    0.1365316145   -1.1534886661
H        0.8276338804    0.3921864799   -1.5161947439
H        1.0497938224    1.2029875705    0.0304740678
H        1.2513184796   -1.5709167705    1.5578797806
H        3.1307084776   -3.3261173989    1.0065609467
H       -0.6872167090   -1.1235266809   -0.3862610856
H       -1.1138883996    0.3821014912    0.0943937023
15   
torsion grid (15,)
C        3.3359012546   -0.3963350827   -0.5545296130
C        2.0218402937   -0.6168859857   -0.2708205635
C        4.1237833917   -1.4721119136    0.0650107697
C        0.7955580962    0.2178683550   -0.5275332269
N        1.8626888224   -1.8194739394    0.4111158420
N        3.1369813538   -2.4230026302    0.4179509975
N       -0.3396607558   -0.2769888341    0.2688885941
O        5.3320963934   -1.6366032019    0.1975763398
H        3.7634822733    0.4399295846   -1.0903451626
H        0.6013734510    0.2394465775   -1.6113037248
H        1.0097325908    1.2471554861   -0.2259200666
H        1.3680452196   -1.7619005255    1.2996284277
H        3.3208590164   -3.0800195578    1.1685242616
H       -0.7416137427   -1.1000040735   -0.1761925095
H       -1.0718862029    0.4284582234    0.2995305291
15   
torsion grid (30,)
C        3.3413214955   -0.3774614140   -0.4289193444
C        2.0187928136   -0.6443206307   -0.2850426864
C        4.0915096833   -1.5043673669    0.1809553641
C        0.7969754002    0.1666763069   -0.6062425005
N        1.8295484061   -1.8824599754    0.3797295379
N        3.1016019987   -2.5218664102    0.2351844606
N       -0.2842885393   -0.1458858803    0.3438991972
O        5.2736279669   -1.6405132800    0.4583027972
H        3.8003927161    0.4958536921   -0.8725537001
H        0.5250747759   -0.0189330840   -1.6586965689
H        1.0465260882    1.2278150418   -0.5240130988
H        1.5299861049   -1.7526457939    1.3474861300
H        3.2584175561   -3.2566311910    0.9220269821
H       -0.6964349514   -1.0455536312    0.1030169251
H       -1.0237063530    0.5480173087    0.2598469052
15   
torsion grid (45,)
C        3.3384703913   -0.3364103847   -0.3233440321
C        2.0228334258   -0.6488218741   -0.2780527366
C        4.0905543896   -1.5311718525    0.2184703921
C        0.7881358280    0.0997543105   -0.6650959687
N        1.8636910402   -1.9180136402    0.4077871301
N        3.1174615035   -2.5535991719    0.0252881293
N       -0.2353402842   -0.0482745590    0.3838622750
O        5.2405849166   -1.6645075818    0.5912771984
H        3.8064198850    0.5567182273   -0.7178100470
H        0.4636221116   -0.2733754072   -1.6522464424
H        1.0337778819    1.1585909737   -0.7834390080
H        1.8353021933   -1.7423561442    1.4152520003
H        3.2865926481   -3.3823232815    0.5981393678
H       -0.5717259526   -1.0102790222    0.3788727453
H       -1.0341175527    0.5428504466    0.1626152094
15   
torsion grid (60,)
C        3.3156160066   -0.2780550243   -0.1893705934
C        2.0010140271   -0.6048206353   -0.2099097715
C        4.0535576610   -1.5654988573    0.2655444941
C        0.7618173284    0.0607946573   -0.6975071386
N        1.8976814123   -1.8800624233    0.5195008339
N        3.0613637539   -2.5189041812   -0.1457755812
N       -0.2622434360    0.0550048410    0.3607141014
O        5.1528035779   -1.7627778246    0.7309540478
H        3.8096254205    0.6061082898   -0.5756277433
H        0.4488753972   -0.4661924643   -1.6172183912
H        0.9948692030    1.0926068501   -0.9755750690
H        2.1202857328   -1.7012048349    1.5009495623
H        3.2252930244   -3.4256365487    0.3067160643
H       -0.5146352415   -0.9131460278    0.5571421755
H       -1.1040036019    0.5132331860    0.0160237224
