20   
torsion grid (-165,)
C       -3.7482441967   -1.7650490865   -0.1273814585
C       -4.1192577901   -1.3990794410   -1.3822442236
C       -1.7725782093   -0.8395836303   -0.8749031293
C        0.5250055799    0.3422778103    1.0599079168
C       -0.2399424150    1.0565600983   -0.0711784095
C       -0.3474795641   -0.3739465422   -0.7298564813
C        0.4742192471   -0.5662160543   -2.0030088438
N       -2.4161045934   -1.4654398931    0.1093924285
N        0.2337649325   -0.9332517697    0.5139250484
O        1.1580719880    0.6717774462    2.0220748235
S       -2.7916578446   -0.6678460088   -2.2355731791
H       -4.4073079170   -2.0474394197    0.6839525597
H       -5.0958514858   -1.4856522612   -1.8405267434
H       -1.1776760140    1.5258502607    0.2331136794
H        0.3628735831    1.7656978948   -0.6405580016
H        1.4912464157   -0.2033493875   -1.8360582863
H        0.0493746839    0.0015023182   -2.8368054504
H        0.5216010390   -1.6208392053   -2.2895119688
H       -1.9165479287   -1.6441802384    0.9853264638
H        0.8730941053   -1.7279007828    0.5470379525
20   
torsion grid (-150,)
C       -3.7400662074   -1.7987401009   -0.1137663375
C       -4.1146167366   -1.4323847116   -1.3706123688
C       -1.7749669734   -0.8455111930   -0.8707051348
C        0.5184565516    0.3510972576    1.0566180326
C       -0.2559993026    1.0591214695   -0.0721535350
C       -0.3519245203   -0.3722347068   -0.7313825808
C        0.4678119218   -0.5559554616   -2.0071833958
N       -2.3986853073   -1.5090669822    0.0999525738
N        0.2377630516   -0.9264842970    0.5101783044
O        1.1505928619    0.6860360150    2.0174514340
S       -2.7968341979   -0.6961520735   -2.2345055852
H       -4.4376135678   -1.8782235287    0.7120573095
H       -5.1026698654   -1.4856651043   -1.8094542354
H       -1.1969441606    1.5199353348    0.2352653192
H        0.3386406007    1.7738772811   -0.6430844630
H        1.4821758050   -0.1846685588   -1.8423918020
H        0.0358358013    0.0090050933   -2.8391343487
H        0.5231140466   -1.6098643768   -2.2948658134
H       -1.8942635673   -1.6752500951    0.9757810912
H        0.8838255598   -1.7157476513    0.5413311785
20   
torsion grid (-135,)
C       -3.7364119266   -1.8282257651   -0.0714959952
C       -4.1157481122   -1.4727863809   -1.3352640825
C       -1.7843332248   -0.8506424603   -0.8568169900
C        0.5109651750    0.3778105519    1.0446278666
C       -0.2810907639    1.0708689654   -0.0815613321
C       -0.3641653947   -0.3652234739   -0.7330420223
C        0.4472799995   -0.5449889466   -2.0148362667
N       -2.3831407056   -1.5458633460    0.1051284244
N        0.2420812223   -0.9054409936    0.5061061111
O        1.1459246881    0.7256220688    1.9988975708
S       -2.8154394707   -0.7317634349   -2.2206280293
H       -4.4563712489   -1.7039698653    0.7320392527
H       -5.1149329758   -1.5001679836   -1.7515838178
H       -1.2249451758    1.5218767167    0.2315580519
H        0.2998915253    1.7897522746   -0.6612688229
H        1.4586890259   -0.1617076761   -1.8594326893
H        0.0023583206    0.0115416989   -2.8455818650
H        0.5119970600   -1.5994641184   -2.2984180688
H       -1.8695389686   -1.6943536464    0.9791423825
H        0.8969749309   -1.6874158580    0.5365558886
20   
torsion grid (-120,)
C       -3.7336559717   -1.8534160238   -0.0633932920
C       -4.1006163004   -1.5031068910   -1.3391552496
C       -1.7787536597   -0.8619370970   -0.8544143773
C        0.5078140253    0.3637091487    1.0549259303
C       -0.2894990935    1.0594241853   -0.0663088362
C       -0.3605406948   -0.3731184063   -0.7283061562
C        0.4524702965   -0.5370066629   -2.0113311873
N       -2.3667091499   -1.5935460545    0.0848862266
N        0.2492026510   -0.9172594099    0.5067644234
O        1.1393563554    0.7099287683    2.0118658415
S       -2.8057618355   -0.7548712755   -2.2275892444
H       -4.4744080318   -1.5432619320    0.6721202101
H       -5.1047290262   -1.4998468419   -1.7456282934
H       -1.2366775479    1.5007195450    0.2507611732
H        0.2852684910    1.7868982791   -0.6414333666
H        1.4611733277   -0.1481998933   -1.8519861817
H        0.0041343134    0.0230371478   -2.8377951123
H        0.5243565441   -1.5887910586   -2.3030107820
H       -1.8498215188   -1.7401275387    0.9577201936
H        0.9081432635   -1.6959921061    0.5329539645
20   
torsion grid (-105,)
C       -3.7355172467   -1.8693737489   -0.0527307945
C       -4.0896663222   -1.5294845281   -1.3423375890
C       -1.7717880736   -0.8778934621   -0.8518293149
C        0.5042033857    0.3502808218    1.0634627229
C       -0.3012433191    1.0461417791   -0.0524816103
C       -0.3568882767   -0.3834925710   -0.7241835482
C        0.4576141689   -0.5296666734   -2.0086366117
N       -2.3504468992   -1.6460417674    0.0617722687
N        0.2580487001   -0.9288367013    0.5068911825
O        1.1323845303    0.6974322378    2.0221115484
S       -2.7961521255   -0.7780964558   -2.2344542180
H       -4.4552059001   -1.3753871030    0.6048449376
H       -5.0987319985   -1.4921248657   -1.7363879015
H       -1.2524362283    1.4754211331    0.2692998807
H        0.2644028907    1.7832059980   -0.6243917754
H        1.4624262236   -0.1323522953   -1.8456410400
H        0.0041384674    0.0321601999   -2.8310024560
H        0.5397123672   -1.5785473784   -2.3078770956
H       -1.8419807953   -1.7884049365    0.9405290411
H        0.9218618070   -1.7035054170    0.5296283186
20   
torsion grid (-90,)
C       -3.7361269541   -1.8750893126   -0.0050805987
C       -4.0845183011   -1.5614178539   -1.3134625159
C       -1.7732657745   -0.8856947090   -0.8408639481
C        0.5026924471    0.3541464296    1.0619472916
C       -0.3162982150    1.0446752914   -0.0480943608
C       -0.3612344514   -0.3853601961   -0.7218509297
C        0.4471738730   -0.5216030922   -2.0114137284
N       -2.3385482808   -1.6736895145    0.0623871144
N        0.2649729310   -0.9258620957    0.5048383507
O        1.1328244406    0.7067101749    2.0170936679
S       -2.8048336322   -0.8024120693   -2.2251712643
H       -4.4627612489   -1.2367090445    0.5160477528
H       -5.0969800515   -1.5152112693   -1.6997477244
H       -1.2692868711    1.4642218383    0.2813088061
H        0.2376965604    1.7876148697   -0.6237630123
H        1.4494362301   -0.1163263433   -1.8523921929
H       -0.0153051596    0.0382530193   -2.8300186521
H        0.5364856774   -1.5691253200   -2.3132318504
H       -1.8201508278   -1.8093198191    0.9369239050
H        0.9333850694   -1.6966374641    0.5244895792
20   
torsion grid (90,)
C       -3.7900403221   -1.6856048548    0.0401414993
C       -4.1713546462   -1.2182083954   -1.2135600816
C       -1.7862501904   -0.8034975281   -0.8172854362
C        0.6139569670    0.3956880737    0.9867210522
C       -0.1597673049    1.0807200067   -0.1577550345
C       -0.3467152628   -0.3797492719   -0.7305893230
C        0.4186192378   -0.6789126177   -2.0196712795
N       -2.4908086990   -1.1744752698    0.2443600075
N        0.2520891222   -0.8929571476    0.5228887229
O        1.2931136677    0.7521398426    1.9064500951
S       -2.8727498071   -0.4958826984   -2.1241443814
H       -4.0021878099   -2.7525858812   -0.1151739541
H       -5.0813241003   -1.4948746875   -1.7350976299
H       -1.0679803934    1.6029295730    0.1491052149
H        0.4502899700    1.7298082391   -0.7877165271
H        1.4554627859   -0.3544671216   -1.9041713998
H       -0.0090548042   -0.1376675893   -2.8694013325
H        0.4133404729   -1.7484101198   -2.2492717673
H       -1.9539910582   -1.4042784642    1.0875851285
H        0.8519871578   -1.7156765140    0.5880381636
20   
torsion grid (105,)
C       -3.7900453387   -1.6554859613    0.0196481858
C       -4.1670452175   -1.2328815640   -1.2402110970
C       -1.7844974603   -0.8018610529   -0.8323865239
C        0.6120935542    0.3917472116    0.9807416460
C       -0.1605073222    1.0819093166   -0.1609978642
C       -0.3451464800   -0.3744609501   -0.7428233603
C        0.4234640775   -0.6654041364   -2.0313382611
N       -2.4807048063   -1.1898906306    0.2298357282
N        0.2524664626   -0.8950933566    0.5089965035
O        1.2894183015    0.7429479075    1.9039938238
S       -2.8641915722   -0.5177446495   -2.1438470830
H       -4.0386877233   -2.7185875789    0.0697229288
H       -5.0817932688   -1.5062218979   -1.7535600301
H       -1.0697139356    1.6016285009    0.1472587463
H        0.4503150636    1.7360014170   -0.7850641798
H        1.4595166803   -0.3394283127   -1.9130603599
H       -0.0037725943   -0.1208613232   -2.8792467274
H        0.4201748812   -1.7337557265   -2.2663288792
H       -1.9495066888   -1.4187960652    1.0762131843
H        0.8562243538   -1.7155065688    0.5676254913
20   
torsion grid (120,)
C       -3.7850895147   -1.6523007802   -0.0118019959
C       -4.1587349815   -1.2523560156   -1.2720645382
C       -1.7803455094   -0.8076295766   -0.8458801194
C        0.5961287698    0.3825082802    0.9967678202
C       -0.1710514745    1.0785647684   -0.1446885802
C       -0.3433262691   -0.3724624806   -0.7419523029
C        0.4382263859   -0.6466369777   -2.0259640009
N       -2.4691973240   -1.2365267430    0.2070637988
N        0.2473046353   -0.9019525887    0.5099395978
O        1.2641460204    0.7279635615    1.9290631126
S       -2.8489702502   -0.5369263814   -2.1625721245
H       -4.1270374994   -2.6625487971    0.2082539501
H       -5.0835806918   -1.4984713039   -1.7796738301
H       -1.0854810564    1.5905261619    0.1612549861
H        0.4412506549    1.7425331941   -0.7567651743
H        1.4713722924   -0.3156647211   -1.8965604080
H        0.0144663873   -0.0968083775   -2.8722413313
H        0.4425363914   -1.7127366436   -2.2709567350
H       -1.9391735142   -1.4516509849    1.0574948740
H        0.8549311982   -1.7197467917    0.5654967120
20   
torsion grid (135,)
C       -3.7735309721   -1.6449689770   -0.0296095129
C       -4.1514174397   -1.2755061427   -1.2906377798
C       -1.7752025472   -0.8089655480   -0.8597170716
C        0.5970918459    0.3814202601    0.9869334110
C       -0.1727274105    1.0792860528   -0.1513956738
C       -0.3390621803   -0.3692605933   -0.7556569184
C        0.4447912420   -0.6338228563   -2.0399480961
N       -2.4520271481   -1.2665814738    0.1904774588
N        0.2536047969   -0.9024007436    0.4941470025
O        1.2634484748    0.7249247191    1.9212536159
S       -2.8386360542   -0.5662334748   -2.1808902974
H       -4.1782166141   -2.5693065131    0.3719973867
H       -5.0885104221   -1.5001817687   -1.7844967935
H       -1.0891763537    1.5863172716    0.1568173325
H        0.4370966032    1.7490138634   -0.7596835813
H        1.4763028376   -0.2983734323   -1.9089763977
H        0.0187657987   -0.0824791582   -2.8841276675
H        0.4538294565   -1.6988461652   -2.2894660997
H       -1.9259690982   -1.4747438286    1.0446085622
H        0.8661714566   -1.7168658187    0.5445007912
20   
torsion grid (150,)
C       -3.7737425477   -1.6705022643   -0.0781853984
C       -4.1419605561   -1.3056090392   -1.3379089578
C       -1.7750466410   -0.8170744638   -0.8645697166
C        0.5653680955    0.3585080140    1.0305560179
C       -0.1947824477    1.0687881824   -0.1064336453
C       -0.3425450924   -0.3707195931   -0.7364965705
C        0.4608419488   -0.6077642601   -2.0138314968
N       -2.4534902172   -1.3195849851    0.1656423785
N        0.2379604241   -0.9196209585    0.5124439872
O        1.2168127275    0.6914160221    1.9792103264
S       -2.8158527475   -0.5876426142   -2.2022566899
H       -4.2518713349   -2.4767334742    0.4662239403
H       -5.0850174873   -1.4983965259   -1.8330930630
H       -1.1188182734    1.5643114108    0.1979075778
H        0.4179097911    1.7529839837   -0.6954363296
H        1.4877534439   -0.2661088892   -1.8639581017
H        0.0413108751   -0.0462309955   -2.8545487887
H        0.4815801550   -1.6684874167   -2.2803719459
H       -1.9422345451   -1.5250101284    1.0290637858
H        0.8565070932   -1.7299256159    0.5569419538
20   
torsion grid (165,)
C       -3.7631537435   -1.6957883728   -0.1042494769
C       -4.1321102874   -1.3355311583   -1.3616833553
C       -1.7709763211   -0.8239404481   -0.8720836096
C        0.5531347619    0.3483606653    1.0411893789
C       -0.2064052695    1.0635818513   -0.0927399572
C       -0.3410185379   -0.3717913728   -0.7351910745
C        0.4706188523   -0.5918591882   -2.0102231644
N       -2.4406604375   -1.3669234797    0.1441731087
N        0.2371758077   -0.9281117550    0.5117863734
O        1.1977331797    0.6775396992    1.9958124359
S       -2.8018078075   -0.6142558093   -2.2182349735
H       -4.3069582592   -2.3498333923    0.5657834361
H       -5.0862559790   -1.4948829797   -1.8469743496
H       -1.1350713747    1.5505216824    0.2115022938
H        0.4043982829    1.7570045134   -0.6728762403
H        1.4942264031   -0.2439143715   -1.8523570026
H        0.0510651034   -0.0263631271   -2.8482648940
H        0.5000478893   -1.6501406100   -2.2854958101
H       -1.9360783408   -1.5656466148    1.0128525849
H        0.8616991049   -1.7341134185    0.5517352363
20   
torsion grid (180,)
C       -3.7594192288   -1.7339818439   -0.1340861920
C       -4.1238693049   -1.3666575629   -1.3894265184
C       -1.7716107516   -0.8341604159   -0.8758167802
C        0.5303395010    0.3320331723    1.0657065295
C       -0.2252839999    1.0527144881   -0.0674602623
C       -0.3444509136   -0.3770146640   -0.7254619451
C        0.4788224591   -0.5780576168   -1.9961764358
N       -2.4343228313   -1.4215959313    0.1200996520
N        0.2281783135   -0.9412602265    0.5204054213
O        1.1644946224    0.6562122753    2.0289988798
S       -2.7888632862   -0.6386399724   -2.2335828960
H       -4.3637001376   -2.2126930752    0.6257496441
H       -5.0874926450   -1.4874787533   -1.8669118684
H       -1.1596008604    1.5304649030    0.2340972823
H        0.3853634611    1.7560637474   -0.6356855495
H        1.4985635130   -0.2240560706   -1.8269592376
H        0.0613971350   -0.0074187999   -2.8317692655
H        0.5179443980   -1.6333254644   -2.2815915300
H       -1.9380689573   -1.6146089268    0.9947693666
H        0.8599257579   -1.7418381146    0.5558740742
