13   
torsion grid (-165,)
C        0.3307458800   -0.8062328663    1.2627831033
C        1.4466824501   -3.2554569098    0.6476041761
N        0.1927828775    0.5892167365    0.9860226176
N       -0.8380437405    1.2271853523    1.7538630158
S       -0.5241275003   -1.5242880185    2.4745871368
S        1.5149463103   -1.4922368820    0.1901914491
H        2.1568952225   -3.7466944325   -0.0199996494
H        0.4428891251   -3.6496944346    0.4883452782
H        1.7544533447   -3.3825885596    1.6854654484
H        0.1148320845    0.8404215242   -0.0000293746
H       -0.4873867477    1.3709729131    2.7126226352
H       -1.6827393285    0.6223590946    1.8429045535
H       -1.0581667809    2.1449307745    1.3419271433
13   
torsion grid (-150,)
C        0.3202998266   -0.7927229139    1.2489208406
C        1.4353859084   -3.2422285008    0.6281771440
N        0.1984863442    0.6065987579    0.9823073332
N       -0.8228260856    1.2480143653    1.7588625075
S       -0.6146484164   -1.5325092310    2.3903428127
S        1.5647571632   -1.4646116831    0.2435000363
H        2.1827169378   -3.7220355417   -0.0063859201
H        0.4392482165   -3.6118090823    0.3842311330
H        1.6681918766   -3.4134985625    1.6791459930
H        0.1425673628    0.8714315416   -0.0005310558
H       -0.4036210327    1.6023257342    2.6311029282
H       -1.5347895191    0.5199430897    2.0395738514
H       -1.2276592358    2.0454554391    1.2505778902
13   
torsion grid (-135,)
C        0.3111918031   -0.7936773485    1.2508152421
C        1.4146524278   -3.2500716956    0.6266091920
N        0.2080167358    0.6057505080    1.0210721093
N       -0.8297537720    1.2439849137    1.7675199472
S       -0.6555670813   -1.5432948203    2.3648855259
S        1.5572611352   -1.4705300063    0.2532211222
H        2.1646255543   -3.7292970014   -0.0052863216
H        0.4188437571   -3.6124067615    0.3712610208
H        1.6389588680   -3.4294797461    1.6780492891
H        0.2838570643    0.9458271052    0.0646151569
H       -0.4190071829    1.7684040965    2.5535960143
H       -1.4096878353    0.4397859558    2.1786211856
H       -1.3820684786    1.8955325289    1.1947049790
13   
torsion grid (-120,)
C        0.3163791315   -0.7786808315    1.2204658072
C        1.4036119919   -3.2429955379    0.5946127512
N        0.2408154039    0.6226499939    1.0345340600
N       -0.8186499778    1.2610692835    1.7371522874
S       -0.6653964475   -1.5297103704    2.3244341509
S        1.5419483025   -1.4659695836    0.2062795476
H        2.1472952441   -3.7262236672   -0.0416251852
H        0.4054607543   -3.6066587593    0.3508473590
H        1.6388514450   -3.4150063895    1.6448788105
H        0.4538224343    1.0317875879    0.1278487538
H       -0.4461344684    1.9256656574    2.4299403020
H       -1.2911239244    0.4317164161    2.2546708830
H       -1.4802632739    1.7487469200    1.1176227933
13   
torsion grid (-105,)
C        0.3178304635   -0.7795352569    1.2315514506
C        1.3887542622   -3.2451566500    0.5827909958
N        0.2874666138    0.6322880255    1.0995435703
N       -0.8209511843    1.2600518874    1.7337929488
S       -0.6780812380   -1.5360580680    2.3181329627
S        1.5235392433   -1.4677707917    0.1954918044
H        2.1280612400   -3.7275749423   -0.0590996063
H        0.3888284976   -3.6082105291    0.3453706341
H        1.6309808336   -3.4180587789    1.6313405471
H        0.5493156265    1.0572815362    0.2123152899
H       -0.5115946260    2.0386678418    2.3308245849
H       -1.2186285198    0.4506309612    2.3378978744
H       -1.5484355759    1.5788528777    1.0771836847
13   
torsion grid (-90,)
C        0.3250824403   -0.7794888480    1.2404149837
C        1.3755033844   -3.2438440683    0.5547437623
N        0.3428249848    0.6410049077    1.1627035269
N       -0.8142231511    1.2633578003    1.7185283294
S       -0.6882329154   -1.5418841768    2.3032376085
S        1.5159569171   -1.4638100431    0.1837939876
H        2.1081828409   -3.7242136669   -0.0961763229
H        0.3719616038   -3.5990933244    0.3206541372
H        1.6225771502   -3.4272856662    1.6004180027
H        0.6343594897    1.0695510019    0.2851265763
H       -0.5684815784    2.1418571174    2.1930663634
H       -1.1544896594    0.5212685781    2.4169939498
H       -1.5808368054    1.4061771467    1.0421325526
13   
torsion grid (-75,)
C        0.3166676336   -0.7840791534    1.2583163290
C        1.3599156335   -3.2377379718    0.5276118095
N        0.3694420958    0.6408812866    1.2312684995
N       -0.8219644211    1.2622483750    1.7235988049
S       -0.7226709163   -1.5617957499    2.2793694408
S        1.5137548572   -1.4518884108    0.1947036955
H        2.1007330260   -3.7091001223   -0.1206621515
H        0.3582706675   -3.5829556684    0.2713705035
H        1.5883232659   -3.4423398054    1.5736570931
H        0.6806484301    1.0743673454    0.3614849110
H       -0.6290765178    2.2254146118    2.0282942645
H       -1.1015811354    0.6466226688    2.5355459596
H       -1.6209084904    1.2224103217    1.0678722719
13   
torsion grid (-60,)
C        0.3197345859   -0.7968639637    1.2579757982
C        1.3684719687   -3.2418620086    0.5116567673
N        0.3843220721    0.6286163082    1.2524856640
N       -0.8089566314    1.2577395365    1.7399013736
S       -0.7911664079   -1.5868252923    2.1845514735
S        1.5841047023   -1.4498135970    0.2584258394
H        2.1437615680   -3.7072547967   -0.0996239865
H        0.3804641798   -3.5537717093    0.1729927875
H        1.5161845427   -3.4893929941    1.5628981319
H        0.6871487689    1.0646362263    0.3802739988
H       -0.6644880883    2.2753795611    1.7986376998
H       -0.9785584725    0.8610266000    2.6845103446
H       -1.6577263018    1.0261497181    1.1920942144
13   
torsion grid (-45,)
C        0.3024933468   -0.8021068028    1.2617210975
C        1.3576666833   -3.2378431617    0.5019236373
N        0.3594326983    0.6245716480    1.2498940345
N       -0.8081546210    1.2520086584    1.7986390492
S       -0.9020311027   -1.5978828840    2.0555936436
S        1.6715465214   -1.4450937649    0.4022243542
H        2.1841417051   -3.6983006897   -0.0424483098
H        0.4078570063   -3.4827542755    0.0263153001
H        1.3657844469   -3.5595195845    1.5433108650
H        0.6130049084    1.0547503652    0.3596414746
H       -0.7754781452    2.2629219358    1.6040892225
H       -0.8017887673    1.1057024893    2.8196987334
H       -1.6900045294    0.8208206363    1.4542238815
13   
torsion grid (-30,)
C        0.2788370723   -0.8213891737    1.2728539065
C        1.3367250561   -3.2552598124    0.5093953232
N        0.3487451390    0.6070502572    1.2631679421
N       -0.8029588575    1.2399881070    1.8385842185
S       -0.9977796546   -1.6131652996    1.9533481661
S        1.7066748499   -1.4701063894    0.5272831798
H        2.1969127462   -3.7156897545    0.0200315694
H        0.4285751514   -3.4488811183   -0.0617497258
H        1.2412553965   -3.6256653336    1.5300465567
H        0.5978692760    1.0345332398    0.3714935889
H       -0.9284675261    2.1830283903    1.4463777922
H       -0.6679276820    1.3206072867    2.8569155232
H       -1.6469700341    0.6321915459    1.6901316378
13   
torsion grid (-15,)
C        0.2780223299   -0.8099666931    1.2629471482
C        1.3267922993   -3.2477097872    0.4899071606
N        0.3537320786    0.6096134911    1.2859297167
N       -0.7935053500    1.2496370025    1.8456999639
S       -1.0345769075   -1.6012899280    1.8839743038
S        1.7160393550   -1.4669355172    0.5497009416
H        2.1943539257   -3.7081085183    0.0136860573
H        0.4320701446   -3.4204679799   -0.1082650535
H        1.2026120454   -3.6361746554    1.5006801213
H        0.7294432257    1.0917900552    0.4722156234
H       -1.0956885038    2.0571878641    1.2849112834
H       -0.5993386265    1.5556091921    2.8098228261
H       -1.5500046921    0.4939030359    1.8716071519
13   
torsion grid (0,)
C        0.2685382307   -0.8088194210    1.2566586655
C        1.3043908680   -3.2520283706    0.4782931972
N        0.3560261941    0.5996435860    1.3412341963
N       -0.8058433284    1.2457695056    1.8412442230
S       -1.0586341978   -1.6004499809    1.8567631543
S        1.6907949297   -1.4696121220    0.5189410556
H        2.1694151055   -3.7139938050   -0.0009956205
H        0.4060297945   -3.4306854975   -0.1124749387
H        1.1895438607   -3.6325465265    1.4931530094
H        0.8806671815    1.1328013050    0.6521918779
H       -1.2364579023    1.8862911633    1.1599241242
H       -0.6090003705    1.7426181747    2.7210355898
H       -1.4710907913    0.4058793759    2.0260492354
13   
torsion grid (15,)
C        0.2684511334   -0.8133911364    1.2722927194
C        1.2940143697   -3.2489174913    0.4580985089
N        0.3931524470    0.5904220858    1.4414742615
N       -0.8113364365    1.2435070137    1.8284865330
S       -1.0660662271   -1.6064047697    1.8498907828
S        1.6744556572   -1.4654820632    0.4985806714
H        2.1544655529   -3.7069915628   -0.0329253796
H        0.3888425420   -3.4282186639   -0.1220447699
H        1.1922440668   -3.6319574200    1.4734627858
H        0.9483183868    1.1221425911    0.7736966225
H       -1.2880040067    1.7308172107    1.0551642188
H       -0.6439508742    1.8897188928    2.6111672246
H       -1.4251799586    0.4085097411    2.1448781690
13   
torsion grid (30,)
C        0.2754409188   -0.8256474257    1.2896837527
C        1.3004674476   -3.2490343336    0.4398339840
N        0.4330672521    0.5697957265    1.5315714178
N       -0.7953567771    1.2442025484    1.8102280248
S       -1.0689340713   -1.6185697388    1.8344203029
S        1.6745174334   -1.4650992564    0.4907782921
H        2.1593150070   -3.7016756443   -0.0588991275
H        0.3920782543   -3.4264836717   -0.1358674290
H        1.2041559887   -3.6383226757    1.4534393922
H        1.0207698803    1.0966433352    0.8859152065
H       -1.3017744518    1.5690572149    0.9709485497
H       -0.6346290578    2.0254941868    2.4598674059
H       -1.3816503757    0.4828596050    2.2735385483
13   
torsion grid (45,)
C        0.2612325636   -0.8378009487    1.3020377651
C        1.2994957777   -3.2420598309    0.4168801287
N        0.4305007585    0.5500143521    1.5914757492
N       -0.8061343917    1.2379280148    1.8188596036
S       -1.1030507875   -1.6331329074    1.7786725580
S        1.6831400056   -1.4633795945    0.5258298264
H        2.1708095139   -3.6886808512   -0.0654078590
H        0.4083985504   -3.3976740155   -0.1912572490
H        1.1669164496   -3.6557865343    1.4166452774
H        1.0276361663    1.0793804316    0.9548315264
H       -1.3767132475    1.3815464770    0.9679860463
H       -0.6207815168    2.1357881586    2.2868686439
H       -1.3510603504    0.6044744078    2.4509647719
13   
torsion grid (60,)
C        0.2699856415   -0.8444612842    1.2946484510
C        1.3110139653   -3.2451464104    0.4089771316
N        0.4393559306    0.5412617874    1.5900840290
N       -0.7924887636    1.2300184189    1.8460835433
S       -1.1414737151   -1.6172882727    1.6480211071
S        1.7436815404   -1.4886543734    0.6311877708
H        2.2070255079   -3.7038487053   -0.0130681900
H        0.4737015054   -3.3425654372   -0.2821036038
H        1.0743497502   -3.6947991294    1.3733091828
H        1.0182081810    1.0751194967    0.9401445833
H       -1.4758160474    1.1669788766    1.0690994127
H       -0.5866219319    2.2126932181    2.0765436160
H       -1.2345106360    0.7692286893    2.6607782019
13   
torsion grid (75,)
C        0.2594739490   -0.8630155390    1.2921965983
C        1.3033139818   -3.2605455255    0.4066339032
N        0.4328810452    0.5266966821    1.5765081835
N       -0.7923602899    1.2066931289    1.8857494499
S       -1.2000451073   -1.5996466475    1.4970232528
S        1.7797743473   -1.5441205167    0.7935201247
H        2.2230020135   -3.7363875527    0.0614480842
H        0.5502754746   -3.2761421295   -0.3814454384
H        0.9363111442   -3.7561781718    1.3053482184
H        0.9740152427    1.0558216368    0.8917871738
H       -1.5707885663    0.9091673961    1.2602995159
H       -0.6388950622    2.2244829477    1.8535762163
H       -1.0784438144    0.9418542490    2.8403548589
13   
torsion grid (90,)
C        0.2596684851   -0.8512012291    1.2846037573
C        1.3037325398   -3.2483636967    0.3937991597
N        0.4411759350    0.5335226237    1.5834612704
N       -0.7774454197    1.2136038816    1.9114222759
S       -1.2292777772   -1.5585741032    1.3737256400
S        1.7920554073   -1.5621834940    0.8868249363
H        2.2346039804   -3.7345950390    0.0963678480
H        0.6110582983   -3.2123089748   -0.4471875469
H        0.8606585096   -3.7705484923    1.2417780436
H        1.0076578003    1.0694430551    0.9272185780
H       -1.5750123371    0.6833247227    1.4638986697
H       -0.7444801983    2.2011947371    1.6266601387
H       -0.9339172947    1.1537166903    2.9282045466
13   
torsion grid (105,)
C        0.2468829974   -0.8466750706    1.2697559391
C        1.2807081240   -3.2501968618    0.3764321669
N        0.4134448637    0.5168629027    1.6073505470
N       -0.7905110696    1.2112108258    1.9115014938
S       -1.2538116392   -1.5465350571    1.3211375117
S        1.7733945974   -1.5638200433    0.8670864093
H        2.2121993158   -3.7398034127    0.0865708569
H        0.5949224045   -3.2131688613   -0.4699281226
H        0.8313275292   -3.7689443868    1.2231480741
H        1.1263199954    1.0815278856    1.1521686670
H       -1.5578500459    0.5008790680    1.6389408442
H       -0.8894112105    2.0959308698    1.3970458606
H       -0.8768463950    1.3646898174    2.9265956045
13   
torsion grid (120,)
C        0.2390810679   -0.8494921825    1.2724660673
C        1.2710555824   -3.2469825336    0.3587998764
N        0.4065774717    0.4956998942    1.6773711167
N       -0.8015566278    1.2077325705    1.9052465927
S       -1.2652342468   -1.5456727522    1.2968538235
S        1.7611787849   -1.5584825185    0.8452722536
H        2.2025889550   -3.7337833764    0.0644552342
H        0.5812159951   -3.2119258187   -0.4843250660
H        0.8277126244   -3.7664717428    1.2082407764
H        1.1667066520    1.0574313039    1.3011775347
H       -1.5483344871    0.4291344388    1.7573750115
H       -0.9583351346    1.9788923756    1.2415280550
H       -0.8566809914    1.5448071559    2.8761831565
13   
torsion grid (135,)
C        0.3502703918   -0.7965615442    1.2120968484
C        1.5004570202   -3.2589437643    0.7016735297
N        0.1197127653    0.5606335099    0.8639336244
N       -0.8643094937    1.2099680161    1.6631349797
S       -0.2010552455   -1.3907635269    2.6563492215
S        1.2907878228   -1.5911489400   -0.0063859360
H        2.0841184120   -3.8063161726   -0.0406377829
H        0.5293374140   -3.7333648025    0.8427795061
H        2.0486264118   -3.1988827911    1.6418644054
H        0.0735729840    0.8150310619   -0.1211129311
H       -0.9410073274    0.5411345627    2.5106932947
H       -1.7897891742    1.2724351051    1.2127084132
H       -0.5450951207    2.1441739399    1.9518714230
13   
torsion grid (150,)
C        0.3555536177   -0.7965584380    1.2318345922
C        1.4806398152   -3.2618835871    0.6830896833
N        0.1796032851    0.5822574264    0.9215620122
N       -0.8682817889    1.2058487472    1.6665041770
S       -0.2185999943   -1.4098767569    2.6562450953
S        1.2803969731   -1.5848151597   -0.0042083241
H        2.0606748456   -3.8042204457   -0.0657018487
H        0.5064326611   -3.7313535745    0.8195877328
H        2.0286404205   -3.2157055410    1.6242230289
H        0.1582917313    0.8450894811   -0.0634423467
H       -0.8786017817    0.6496493614    2.5772181516
H       -1.8020815004    1.1001621256    1.2371901407
H       -0.6633942632    2.2033782439    1.8113908600
13   
torsion grid (165,)
C        0.3532258094   -0.8029742883    1.2524300581
C        1.4656393929   -3.2645057025    0.6648769330
N        0.2147628615    0.5893976992    0.9747668173
N       -0.8709545942    1.2037085271    1.6803271483
S       -0.2676290513   -1.4458766614    2.6398520002
S        1.2978511955   -1.5701611632    0.0138418841
H        2.0582661949   -3.7952341964   -0.0823854356
H        0.4838402021   -3.7266579629    0.7678172255
H        1.9904304179   -3.2456903728    1.6201239641
H        0.2101893099    0.8619704140   -0.0089105663
H       -0.8068948988    0.8263757905    2.6566332944
H       -1.8039197086    0.9283011105    1.3266334456
H       -0.7757964453    2.2278630512    1.6464425979
13   
torsion grid (180,)
C        0.3351219797   -0.7975779031    1.2643963741
C        1.4464522263   -3.2513343547    0.6526026676
N        0.2003867148    0.5981235827    0.9993142315
N       -0.8660816658    1.2220610965    1.7283263048
S       -0.3928989499   -1.4831006321    2.5737772086
S        1.3866413423   -1.5212528115    0.0822597084
H        2.0908739412   -3.7617060099   -0.0654508917
H        0.4472133496   -3.6867605359    0.6414919306
H        1.8808494700   -3.2989561285    1.6511816233
H        0.1660054470    0.8699551478    0.0157714918
H       -0.6618803295    1.1018339340    2.7356579309
H       -1.7889318436    0.7762444044    1.5703621077
H       -0.9011455564    2.2226398182    1.4864662415
