24
0 1 C6H14N2OS
C                    -0.018418287990    -3.080879404464     1.610762405723
C                     0.163100872580    -1.570931649834    -0.351202457890
C                    -4.155482921155    -3.244943009143     6.796159357160
C                    -1.450707381915    -2.826912243014     3.645594124562
C                    -2.509480689352    -3.435471110094     4.564187076532
C                    -0.997506556429    -3.812876190329     2.549448137006
N                    -0.403246734929    -5.003887009134     3.157413203754
N                    -0.592765261013    -2.411223673428     0.568263525351
O                     1.195391702304    -3.094394574549     1.819615506013
S                    -3.013066371520    -2.204337387245     5.825811863258
H                    -0.065960600492    -0.509365980092    -0.201813021931
H                    -0.055450278529    -1.841438128584    -1.389327561614
H                     1.222910954591    -1.733826175053    -0.154224697470
H                    -4.546160803020    -2.628557129566     7.609544137787
H                    -3.634375768783    -4.106050938000     7.224442339068
H                    -4.993159258839    -3.590829008810     6.183226559970
H                    -1.842324172322    -1.916253594220     3.177370460783
H                    -0.573732878746    -2.529741921646     4.232137055343
H                    -2.108226650587    -4.323891208320     5.056664746954
H                    -3.391711012328    -3.732695026530     3.984647515087
H                    -1.880823417806    -4.129441560273     1.979067897521
H                     0.527965632987    -4.740990754853     3.485638242105
H                    -0.241314830682    -5.703195555593     2.433400770647
H                    -1.600917645813    -2.427864243496     0.489369055940
