
  -OEChem-12122420523D

 24 23  0     1  0  0  0  0  0999 V2000
   -0.0184   -3.0809    1.6108 C   0  0  0  0  0  0  0  0  0  0  0  0
    0.1631   -1.5709   -0.3512 C   0  0  0  0  0  0  0  0  0  0  0  0
   -4.1555   -3.2449    6.7962 C   0  0  0  0  0  0  0  0  0  0  0  0
   -1.4507   -2.8269    3.6456 C   0  0  0  0  0  0  0  0  0  0  0  0
   -2.5095   -3.4355    4.5642 C   0  0  0  0  0  0  0  0  0  0  0  0
   -0.9975   -3.8129    2.5494 C   0  0  2  0  0  0  0  0  0  0  0  0
   -0.4032   -5.0039    3.1574 N   0  0  0  0  0  0  0  0  0  0  0  0
   -0.5928   -2.4112    0.5683 N   0  0  0  0  0  0  0  0  0  0  0  0
    1.1954   -3.0944    1.8196 O   0  0  0  0  0  0  0  0  0  0  0  0
   -3.0131   -2.2043    5.8258 S   0  0  0  0  0  0  0  0  0  0  0  0
   -0.0660   -0.5094   -0.2018 H   0  0  0  0  0  0  0  0  0  0  0  0
   -0.0555   -1.8414   -1.3893 H   0  0  0  0  0  0  0  0  0  0  0  0
    1.2229   -1.7338   -0.1542 H   0  0  0  0  0  0  0  0  0  0  0  0
   -4.5462   -2.6286    7.6095 H   0  0  0  0  0  0  0  0  0  0  0  0
   -3.6344   -4.1061    7.2244 H   0  0  0  0  0  0  0  0  0  0  0  0
   -4.9932   -3.5908    6.1832 H   0  0  0  0  0  0  0  0  0  0  0  0
   -1.8423   -1.9163    3.1774 H   0  0  0  0  0  0  0  0  0  0  0  0
   -0.5737   -2.5297    4.2321 H   0  0  0  0  0  0  0  0  0  0  0  0
   -2.1082   -4.3239    5.0567 H   0  0  0  0  0  0  0  0  0  0  0  0
   -3.3917   -3.7327    3.9846 H   0  0  0  0  0  0  0  0  0  0  0  0
   -1.8808   -4.1294    1.9791 H   0  0  0  0  0  0  0  0  0  0  0  0
    0.5280   -4.7410    3.4856 H   0  0  0  0  0  0  0  0  0  0  0  0
   -0.2413   -5.7032    2.4334 H   0  0  0  0  0  0  0  0  0  0  0  0
   -1.6009   -2.4279    0.4894 H   0  0  0  0  0  0  0  0  0  0  0  0
  1  6  1  0  0  0  0
  1  8  1  0  0  0  0
  1  9  2  0  0  0  0
  2  8  1  0  0  0  0
  2 11  1  0  0  0  0
  2 12  1  0  0  0  0
  2 13  1  0  0  0  0
  3 10  1  0  0  0  0
  3 14  1  0  0  0  0
  3 15  1  0  0  0  0
  3 16  1  0  0  0  0
  4  5  1  0  0  0  0
  4  6  1  0  0  0  0
  4 17  1  0  0  0  0
  4 18  1  0  0  0  0
  5 10  1  0  0  0  0
  5 19  1  0  0  0  0
  5 20  1  0  0  0  0
  6  7  1  0  0  0  0
  6 21  1  0  0  0  0
  7 22  1  0  0  0  0
  7 23  1  0  0  0  0
  8 24  1  0  0  0  0
M  END
$$$$
