29   
torsion grid (-165,)
C       -1.9535627337    0.1912628157    1.5705257176
C       -2.7306709812   -0.5844891703    2.4014682228
C       -0.6775436062   -0.2879976169    1.2010898214
C       -2.1747206651   -1.8109140384    2.8195927010
C       -0.2333762775    1.5002420278   -0.6665589432
C        0.2728319552    0.1674251577   -1.1723669364
C        0.2789863024    0.4652647331    0.3156345652
C       -0.0438626109   -2.2369218357   -1.8988787507
C       -2.3484948831   -3.8385033853    4.0511823553
C       -0.6717528614   -0.8410360656   -1.7950393346
N       -0.2163703192   -1.4580616809    1.6518658331
N       -0.9617012182   -2.2215148313    2.4616725932
N        1.5933592758    0.7333952180    0.8736759332
O       -2.9273573210   -2.5895674503    3.6288460910
H       -2.3054816158    1.1534833943    1.2122058369
H       -3.7205627661   -0.2907273666    2.7369958843
H        0.3900496052    2.3768992041   -0.8085442291
H       -1.3030674816    1.6806086136   -0.7308479717
H        1.2682188297    0.1919985351   -1.6107781828
H        0.8630848381   -2.2112532590   -2.5136502504
H       -0.7374147898   -2.9515725965   -2.3553183465
H        0.2321147872   -2.6110542450   -0.9077252976
H       -3.1079070365   -4.3026530825    4.6811423068
H       -1.4290868119   -3.6676034609    4.6169910278
H       -2.1218669129   -4.4714964840    3.1894761832
H       -1.6019058939   -0.8938041829   -1.2169412749
H       -0.9545367000   -0.4879148369   -2.7955194076
H        1.9944469108   -0.1535249679    1.1800606810
H        1.4953388765    1.3097970359    1.7100236785
29   
torsion grid (-150,)
C       -1.9941985014   -0.0455695893    1.2360995311
C       -2.7805834412   -0.8493842765    2.0286972657
C       -0.6103525621   -0.3265986408    1.1500881142
C       -2.1308592411   -1.9048816088    2.7012744140
C       -0.0993053337    1.5821645619   -0.5856874980
C        0.3126974500    0.2734096062   -1.2166536018
C        0.3646327798    0.4461587672    0.3019334233
C       -0.2933283472   -2.1206546430   -1.7996816485
C       -2.2163566711   -3.7794264502    4.1624134426
C       -0.6917644424   -0.6411049461   -1.8892037226
N       -0.0702460760   -1.3397348762    1.8332312328
N       -0.8252685123   -2.1300773910    2.6086818132
N        1.7060581576    0.6022761323    0.8332354935
O       -2.8923122603   -2.7085992358    3.4775416240
H       -2.4281675286    0.7927393740    0.7020992829
H       -3.8482043819   -0.6968938075    2.1534421004
H        0.5789662637    2.4257485199   -0.6621926617
H       -1.1528062038    1.8441337037   -0.6120632602
H        1.3066469159    0.2644913656   -1.6581261875
H        0.6826649725   -2.2920235291   -2.2677996175
H       -1.0244056328   -2.7590895882   -2.3075155954
H       -0.2201845590   -2.4453639384   -0.7574634429
H       -2.9981452618   -4.2955118286    4.7205372944
H       -1.4540360468   -3.3858194917    4.8396450975
H       -1.7405746815   -4.4566501722    3.4484778635
H       -1.6850619556   -0.5048147659   -1.4461003195
H       -0.7890499707   -0.3424369936   -2.9407430274
H        2.0408664756   -0.3190643863    1.1159811392
H        1.6594730295    1.1533673744    1.6911734705
29   
torsion grid (-135,)
C       -2.0058399916   -0.1590746451    1.0610795797
C       -2.7996922461   -0.9705509726    1.8358367005
C       -0.6017122845   -0.3413379612    1.1066130801
C       -2.1398997578   -1.9328557660    2.6292825953
C       -0.0755946298    1.6269388928   -0.5387233760
C        0.3243800758    0.3581684493   -1.2541742344
C        0.3812034244    0.4428272320    0.2802497753
C       -0.5092881274   -2.0224749928   -1.7078139657
C       -2.2247234294   -3.7193698254    4.1960817696
C       -0.6753941756   -0.5215336623   -1.9875464740
N       -0.0551138816   -1.2634850102    1.9032531207
N       -0.8197239907   -2.0609090318    2.6642913131
N        1.7279955899    0.5615141920    0.8057351701
O       -2.9103093774   -2.7450311142    3.3879081682
H       -2.4528569007    0.6075821679    0.4384536906
H       -3.8821513262   -0.8913545703    1.8604688401
H        0.6065585079    2.4706228404   -0.5693056974
H       -1.1269631284    1.8981061580   -0.5410838599
H        1.3247224125    0.3663172680   -1.6796871504
H        0.5071972670   -2.3562108662   -1.9454941749
H       -1.2044450681   -2.6111109313   -2.3164380653
H       -0.6940423215   -2.2600249027   -0.6580654224
H       -3.0150272242   -4.2607464759    4.7170245455
H       -1.5567305246   -3.2298985422    4.9094542893
H       -1.6391652100   -4.3982626576    3.5707729953
H       -1.6993257841   -0.2240622901   -1.7318047082
H       -0.5754278936   -0.3307907885   -3.0629016054
H        2.0519218333   -0.3730958125    1.0552624955
H        1.6907337015    1.0743947530    1.6877507511
29   
torsion grid (-120,)
C       -1.9862309905   -0.1814011205    1.0750731586
C       -2.7713896903   -0.9937617496    1.8569793132
C       -0.5811239774   -0.3615118666    1.1075254921
C       -2.1018806241   -1.9572924941    2.6416490043
C       -0.0886988052    1.6167107456   -0.5191944106
C        0.3581378217    0.3756685516   -1.2578555194
C        0.3919194008    0.4368053213    0.2835468985
C       -0.6798879926   -1.9865675737   -1.5914090645
C       -2.1687816964   -3.7491237129    4.2029407208
C       -0.5884247217   -0.5221725997   -2.0519732596
N       -0.0250229800   -1.2828374394    1.8972954592
N       -0.7815628853   -2.0845953515    2.6624297581
N        1.7317472788    0.5812177783    0.8222465112
O       -2.8637041324   -2.7723830008    3.4056334301
H       -2.4407592031    0.5770683784    0.4477409571
H       -3.8538519423   -0.9179160856    1.8905244834
H        0.5645896432    2.4837342981   -0.5316512622
H       -1.1479825558    1.8539123824   -0.5324934303
H        1.3695746886    0.4281212672   -1.6512843715
H        0.3160191094   -2.4279863597   -1.4748184285
H       -1.2246767296   -2.5825142866   -2.3320812770
H       -1.1978461592   -2.0912161988   -0.6381837414
H       -2.9530457600   -4.2930680622    4.7302893999
H       -1.4936435499   -3.2615884685    4.9108960894
H       -1.5893116487   -4.4251657240    3.5689420948
H       -1.5988303291   -0.0932095854   -2.0494145418
H       -0.2660377906   -0.4930548416   -3.0988841497
H        2.0740078625   -0.3483298253    1.0663030233
H        1.6743365755    1.0842925229    1.7089631802
29   
torsion grid (-105,)
C       -1.9616896672    0.2504609383    0.9718533054
C       -2.9867529404   -0.3325867714    1.6809716229
C       -0.6489235529   -0.2391106866    1.1586013274
C       -2.6338418427   -1.3856877627    2.5499537275
C        0.4155235563    1.2520206170   -0.7117982570
C        0.9122363214   -0.1530348725   -0.9831367522
C        0.5616883142    0.2951316773    0.4423479383
C       -0.6137490803   -2.2932717017   -1.1276094366
C       -3.2579376046   -3.0527806044    4.1272544103
C        0.1307452611   -1.1535235634   -1.8430713419
N       -0.3929803443   -1.2176062386    2.0307478725
N       -1.3816771935   -1.7956895392    2.7244427099
N        1.7358883632    0.5195870374    1.2711041651
O       -3.6318080726   -1.9831997665    3.2389828405
H       -2.1576355909    1.0704105706    0.2893425567
H       -4.0216642993   -0.0147642834    1.5994856176
H        1.1235425171    2.0737390691   -0.7572244486
H       -0.5806870302    1.4900818554   -1.0735338389
H        1.9910445252   -0.2211074559   -1.0893853429
H        0.0239915491   -2.7900699245   -0.3902620407
H       -0.9340855597   -3.0422659182   -1.8604117505
H       -1.5079440392   -1.9442500396   -0.6076547987
H       -4.1944843166   -3.3907490601    4.5718752285
H       -2.5715521960   -2.6938924124    4.8984175311
H       -2.7776098476   -3.8646601688    3.5751135290
H       -0.5851235014   -0.6112911451   -2.4735709473
H        0.8497479657   -1.5979646592   -2.5397099926
H        1.9277690285   -0.3432431702    1.7811133726
H        1.5104427214    1.2181936436    1.9806158688
29   
torsion grid (-90,)
C       -1.9656417603    0.2898655276    1.0724212301
C       -2.9806867751   -0.2904055489    1.7988184315
C       -0.6679420271   -0.2591012022    1.1714349343
C       -2.6299838680   -1.3995214209    2.5957144812
C        0.3608295281    1.1886844326   -0.7553398252
C        0.9387822137   -0.1993139566   -0.9450309880
C        0.5301834876    0.2895874040    0.4449661734
C       -0.7686581964   -2.2000449478   -1.1914274029
C       -3.2471829077   -3.1250782481    4.1117837644
C        0.2602658166   -1.2541581026   -1.8278551897
N       -0.4097536270   -1.2900279225    1.9797584284
N       -1.3879787806   -1.8647037305    2.6906250393
N        1.6724208456    0.6093644587    1.2898104228
O       -3.6182812701   -1.9956371600    3.2996813695
H       -2.1539967719    1.1522273357    0.4412467356
H       -4.0051326290    0.0686930928    1.7821443733
H        1.0215928844    2.0469243811   -0.8276946586
H       -0.6420392171    1.3474566100   -1.1433392863
H        2.0220244072   -0.1982112536   -1.0258400252
H       -0.3527121913   -2.7204838646   -0.3248434493
H       -1.0774528075   -2.9514125426   -1.9266735144
H       -1.6710951765   -1.6768880997   -0.8634593813
H       -4.1754314345   -3.4521709767    4.5812514734
H       -2.5133952324   -2.8344021646    4.8678515415
H       -2.8243149815   -3.9227467251    3.4956272728
H       -0.2027185380   -0.7510507372   -2.6859628321
H        1.0600675384   -1.8733530411   -2.2491122161
H        1.9095802395   -0.2265040479    1.8253813417
H        1.3927945722    1.3136330995    1.9738993992
29   
torsion grid (-75,)
C       -1.9803278418    0.2661207389    1.1123434419
C       -2.9856820008   -0.3193777221    1.8478229030
C       -0.6846931944   -0.2912163106    1.1808287531
C       -2.6263486108   -1.4414602184    2.6224890427
C        0.3205767597    1.1319264096   -0.7812953194
C        0.9508004054   -0.2402779301   -0.9112542080
C        0.5038761732    0.2739374329    0.4512919421
C       -0.9140859973   -2.0651954758   -1.3040321680
C       -3.2253217564   -3.1831504723    4.1274787694
C        0.3425982524   -1.3328762105   -1.7926439563
N       -0.4173491563   -1.3375967239    1.9657043737
N       -1.3862529758   -1.9172124537    2.6860538303
N        1.6193052549    0.6620135562    1.3044208651
O       -3.6046854417   -2.0407294464    3.3376832355
H       -2.1725815658    1.1382719850    0.4955313937
H       -4.0087360420    0.0440319971    1.8537235710
H        0.9514911009    2.0104197769   -0.8723025899
H       -0.6839443578    1.2416300620   -1.1823542830
H        2.0342360263   -0.1957334924   -0.9846039478
H       -0.7332744537   -2.5853118732   -0.3607553195
H       -1.2169563502   -2.8087726859   -2.0493583646
H       -1.7625526231   -1.3889877686   -1.1576907671
H       -4.1463855205   -3.5104970107    4.6107286513
H       -2.4750440278   -2.9071694272    4.8728094491
H       -2.8197602543   -3.9752887850    3.4928522032
H        0.1464878790   -0.8974490570   -2.7805704548
H        1.1202418036   -2.0894184207   -1.9507285702
H        1.8843331038   -0.1499642950    1.8632870467
H        1.3015873532    1.3715673920    1.9659572130
29   
torsion grid (-60,)
C       -1.9888456227    0.2401249593    1.1328003478
C       -2.9858303443   -0.3578274507    1.8693766056
C       -0.6898409852   -0.3102886896    1.1883747413
C       -2.6142943513   -1.4840820896    2.6324845094
C        0.2946621460    1.0826212040   -0.8080086944
C        0.9573294285   -0.2778412895   -0.8827383430
C        0.4887963071    0.2688191162    0.4553108977
C       -1.0257201226   -1.9298663715   -1.4043113862
C       -3.1922858118   -3.2399020740    4.1293270190
C        0.3858172400   -1.4182247337   -1.7193137880
N       -0.4102207993   -1.3628066614    1.9605901104
N       -1.3713720404   -1.9540768335    2.6826714918
N        1.5844002843    0.7130387924    1.3070323721
O       -3.5841941955   -2.0947328718    3.3497093325
H       -2.1888133562    1.1154174820    0.5226803534
H       -4.0113656201   -0.0017406159    1.8844637113
H        0.9081552523    1.9705081681   -0.9228525999
H       -0.7098671572    1.1606283633   -1.2158841107
H        2.0403156484   -0.2146904490   -0.9571465789
H       -1.0733846268   -2.4066516489   -0.4233947962
H       -1.3218630644   -2.6733217010   -2.1522491389
H       -1.7746974165   -1.1308038581   -1.4290645572
H       -4.1077866852   -3.5757436545    4.6173000573
H       -2.4381111171   -2.9641838158    4.8708300066
H       -2.7867098798   -4.0256210568    3.4867892432
H        0.4288013870   -1.1007671488   -2.7691334681
H        1.0740749467   -2.2681964664   -1.6343061086
H        1.8721937718   -0.0763992445    1.8865900208
H        1.2402477419    1.4284081628    1.9487076841
29   
torsion grid (-45,)
C       -1.9771703070    0.2568661776    1.1571004123
C       -2.9703608105   -0.3487528809    1.8923886180
C       -0.6811461247   -0.3025631706    1.1898661267
C       -2.5976499031   -1.4915656739    2.6303806428
C        0.2830043325    1.0527864965   -0.8365495786
C        0.9670107955   -0.2992963283   -0.8617420490
C        0.4906414153    0.2850719519    0.4538707673
C       -1.0816808264   -1.8228763683   -1.4949407269
C       -3.1718960119   -3.2726331174    4.0985864772
C        0.4140291503   -1.5020157749   -1.6148891832
N       -0.3995305330   -1.3725697934    1.9369160074
N       -1.3577535839   -1.9712328993    2.6577009873
N        1.5704242226    0.7752441059    1.2996607334
O       -3.5641413299   -2.1096138400    3.3459888381
H       -2.1772448990    1.1429397678    0.5625764876
H       -3.9938819795    0.0120525168    1.9238690535
H        0.8886561837    1.9414892346   -0.9823720899
H       -0.7235078071    1.1109436801   -1.2411160571
H        2.0491206144   -0.2261014350   -0.9438258437
H       -1.3452007691   -2.1866169244   -0.5001861718
H       -1.3480621539   -2.6060536313   -2.2127105703
H       -1.7114359599   -0.9541878183   -1.7166601522
H       -4.0842605437   -3.6113383866    4.5904410984
H       -2.4072425854   -3.0169950120    4.8365258992
H       -2.7795320737   -4.0485131490    3.4361866447
H        0.6583545235   -1.3486654739   -2.6741229648
H        0.9809081326   -2.3864904795   -1.2985272721
H        1.8790515752    0.0061085766    1.8955057699
H        1.2080118206    1.4959591028    1.9249657038
29   
torsion grid (-30,)
C       -1.9883661441    0.2733596597    1.2368281317
C       -2.9617919786   -0.3430940431    1.9890300040
C       -0.7027487810   -0.3102258610    1.1934617826
C       -2.5806328592   -1.5219588029    2.6643000382
C        0.2068786840    1.0195917685   -0.8701552682
C        0.9252054022   -0.3160233868   -0.8587943479
C        0.4467356152    0.2963833231    0.4398763702
C       -1.1316844529   -1.7598448055   -1.6195972050
C       -3.1291727310   -3.3495461150    4.0845118357
C        0.3884207455   -1.5781017223   -1.5210882222
N       -0.4123286109   -1.4187253262    1.8781487057
N       -1.3524393892   -2.0284903318    2.6148027673
N        1.5152508953    0.8402719367    1.2671928953
O       -3.5279035060   -2.1483995878    3.3980321168
H       -2.1943079286    1.1842789006    0.6827551625
H       -3.9762969585    0.0334018818    2.0775698173
H        0.7902561228    1.9172555600   -1.0484319320
H       -0.8060757753    1.0434415828   -1.2607830015
H        2.0047139945   -0.2246365523   -0.9552756688
H       -1.6003083517   -1.8919353047   -0.6425068043
H       -1.3580782741   -2.6524140221   -2.2123679835
H       -1.6134424395   -0.9104509283   -2.1160838709
H       -4.0262793843   -3.6890669821    4.6031401421
H       -2.3269153541   -3.1405960139    4.7967831970
H       -2.7843178364   -4.1052958550    3.3741878694
H        0.8052763539   -1.6048726871   -2.5359965571
H        0.8122853886   -2.4417108983   -0.9935175281
H        1.8607684756    0.0944074879    1.8722934328
H        1.1354088750    1.5600650698    1.8831001521
29   
torsion grid (-15,)
C       -1.9980513478    0.2858187194    1.2840117679
C       -2.9579551108   -0.3371381996    2.0478966052
C       -0.7192492932   -0.3085767677    1.1931293746
C       -2.5708213379   -1.5359989780    2.6840923488
C        0.1558214250    0.9927962995   -0.8967864511
C        0.8982285801   -0.3303590148   -0.8528408350
C        0.4160110438    0.3124969061    0.4297555209
C       -1.1437389402   -1.6913575201   -1.7507695757
C       -3.1005639095   -3.3898996287    4.0770181953
C        0.3528710071   -1.6356392012   -1.4208608317
N       -0.4243472755   -1.4390568556    1.8384990547
N       -1.3518087987   -2.0564976249    2.5858283607
N        1.4727401423    0.8976124727    1.2427122015
O       -3.5041099756   -2.1683501454    3.4304277053
H       -2.2081166466    1.2112287421    0.7556551555
H       -3.9656114644    0.0474166778    2.1728029124
H        0.7232938884    1.8941555757   -1.1056123731
H       -0.8594225050    0.9875554029   -1.2818272695
H        1.9754927649   -0.2309434942   -0.9605504604
H       -1.7728714543   -1.5434081131   -0.8690687085
H       -1.3964785670   -2.6712470460   -2.1692715564
H       -1.4192210946   -0.9354322642   -2.4940646773
H       -3.9863292812   -3.7308108280    4.6138980517
H       -2.2753398226   -3.2070294856    4.7699786404
H       -2.7859639831   -4.1327869573    3.3396414506
H        0.9118059793   -1.8493528358   -2.3402138131
H        0.5964037354   -2.4412297629   -0.7175415699
H        1.8446245350    0.1719151900    1.8564747743
H        1.0796840451    1.6183732282    1.8490091648
29   
torsion grid (0,)
C       -2.0244368995    0.2247316120    1.2499827155
C       -2.9763353275   -0.4083014256    2.0160766251
C       -0.7221511059   -0.3218511702    1.2067924819
C       -2.5593831735   -1.5687468667    2.7018690959
C        0.1357773000    0.9893537408   -0.8765543073
C        0.8669642895   -0.3414448029   -0.8501856206
C        0.4088214728    0.3081874067    0.4425478647
C       -1.1523732268   -1.5801350056   -1.9303671394
C       -3.0488070426   -3.3917771047    4.1492625884
C        0.2703820595   -1.6507599359   -1.3626962682
N       -0.4012058494   -1.4191980659    1.8963235549
N       -1.3198440353   -2.0454217905    2.6464311490
N        1.4769806352    0.8819893936    1.2463841145
O       -3.4840741149   -2.2100252035    3.4512462649
H       -2.2581684462    1.1252620638    0.6897864199
H       -3.9995756306   -0.0571045892    2.1079451994
H        0.7120037323    1.8832353439   -1.0932306543
H       -0.8823292507    0.9975069418   -1.2532151132
H        1.9426316028   -0.2577294868   -0.9792627306
H       -1.8835476239   -1.2649322726   -1.1788136428
H       -1.4644742906   -2.5658664399   -2.2914343933
H       -1.2109204399   -0.8813247521   -2.7716185888
H       -3.9321157044   -3.7466736374    4.6810907708
H       -2.2452672043   -3.1534375901    4.8507758102
H       -2.6918985974   -4.1479658838    3.4454271727
H        0.9305789281   -2.0260357272   -2.1534138801
H        0.3082367475   -2.3921579275   -0.5560423812
H        1.8476075274    0.1518904230    1.8555350388
H        1.0960546466    1.6053540520    1.8572170479
29   
torsion grid (15,)
C       -2.0756315309    0.0679383311    1.1624229224
C       -3.0242036882   -0.5774545000    1.9232523067
C       -0.7312493691   -0.3540572526    1.2623416514
C       -2.5635991999   -1.6227024406    2.7501158846
C        0.1371112179    0.9980254244   -0.7930847078
C        0.8100267437   -0.3622073297   -0.8228987685
C        0.4049507246    0.2736150089    0.5013985366
C       -1.1418312354   -1.4187622036   -2.1752414001
C       -3.0017340735   -3.3354177918    4.3417510690
C        0.1317988031   -1.6298351318   -1.3466840372
N       -0.3728966529   -1.3472096659    2.0808591903
N       -1.2861346592   -1.9826344849    2.8275270703
N        1.5104627565    0.7812798074    1.2956258713
O       -3.4834966691   -2.2735866520    3.4971098024
H       -2.3481607255    0.8908480861    0.5092711885
H       -4.0772394850   -0.3134187899    1.9118171634
H        0.7516815426    1.8694780069   -0.9946259084
H       -0.8819647571    1.0657975827   -1.1593948822
H        1.8847851161   -0.3199580429   -0.9743933069
H       -1.9528030988   -0.9876473554   -1.5781131278
H       -1.5043145614   -2.3740482024   -2.5699023978
H       -0.9565785144   -0.7501366524   -3.0225922862
H       -3.8890640431   -3.7192598248    4.8460836537
H       -2.2788938812   -2.9550443841    5.0680180335
H       -2.5267310439   -4.1191142346    3.7461069996
H        0.8601587095   -2.1564401724   -1.9732004010
H       -0.0807128785   -2.3033446812   -0.5086127300
H        1.8461440307    0.0245382994    1.8923106526
H        1.1711499371    1.5125616492    1.9213859105
29   
torsion grid (30,)
C       -2.0820796886   -0.5812844803    0.8893650700
C       -3.0211295168   -1.2283055933    1.6559557344
C       -0.7410335429   -0.5443009719    1.3459334366
C       -2.5642637008   -1.8154199193    2.8550992028
C        0.1112195076    1.0219378738   -0.5809848559
C        0.6816261364   -0.3538738109   -0.8390649921
C        0.3870334841    0.1050404643    0.5936898347
C       -1.0766229445   -0.9727683398   -2.6401019577
C       -2.9993193027   -3.0520075972    4.8386660185
C       -0.0771687960   -1.4561432948   -1.5805903515
N       -0.3925386411   -1.1238441330    2.4972589770
N       -1.3005877622   -1.7596470022    3.2540965884
N        1.5737073479    0.4468619082    1.3536100530
O       -3.4778647311   -2.4574815869    3.6180336088
H       -2.3717383308   -0.1041188356   -0.0396698396
H       -4.0683744670   -1.2957218983    1.3779288476
H        0.7752083076    1.8747746895   -0.6772836643
H       -0.9181941613    1.2184657450   -0.8619454252
H        1.7513805314   -0.3427895202   -1.0262702477
H       -1.9045453277   -0.4073988207   -2.2005695066
H       -1.5122784167   -1.8235566708   -3.1751397640
H       -0.5912486998   -0.3220602862   -3.3752910864
H       -3.8783397978   -3.5096506823    5.2935830810
H       -2.5741627380   -2.2917829264    5.4989929810
H       -2.2362083244   -3.8059925632    4.6290838292
H        0.6655400249   -2.0969937591   -2.0666792640
H       -0.6002315757   -2.1053967111   -0.8683276953
H        1.8411327399   -0.3674922251    1.9068540015
H        1.3256626393    1.1610138489    2.0397184085
29   
torsion grid (45,)
C       -2.1116912592   -0.5934857181    0.9464411076
C       -3.0393733219   -1.2358093755    1.7307879502
C       -0.7616656009   -0.5630066366    1.3789392844
C       -2.5633323756   -1.8256536617    2.9211977167
C        0.0411399094    1.0219242805   -0.5432398807
C        0.6120478049   -0.3455395165   -0.8387818690
C        0.3539210313    0.0883493251    0.6090973100
C       -0.9060772544   -0.9289626411   -2.8253940264
C       -2.9680838732   -3.0610515105    4.9120419255
C       -0.1655766872   -1.4299876783   -1.5778734138
N       -0.3949797656   -1.1450657641    2.5229108802
N       -1.2920218075   -1.7771147745    3.2960905771
N        1.5555054927    0.4236673264    1.3470998675
O       -3.4660760654   -2.4629208541    3.7009604502
H       -2.4164274230   -0.1160677934    0.0215266636
H       -4.0918890574   -1.2983538314    1.4722766152
H        0.6989760645    1.8787823833   -0.6459767037
H       -0.9971286460    1.2190406567   -0.7897589929
H        1.6748102428   -0.3229440218   -1.0634368035
H       -1.6839420001   -0.2028610633   -2.5655360435
H       -1.3889694601   -1.7580791750   -3.3540677639
H       -0.2200601879   -0.4362653504   -3.5229515341
H       -3.8410064093   -3.5140262981    5.3830905290
H       -2.5262741593   -2.3037460159    5.5647383001
H       -2.2133493854   -3.8192039957    4.6876933557
H        0.5413630041   -2.2154355561   -1.8660618745
H       -0.8848413492   -1.9164907031   -0.9102855973
H        1.8376626768   -0.3968471345    1.8836196038
H        1.3205215606    1.1280423676    2.0477094268
29   
torsion grid (60,)
C       -2.1909645118   -0.4428756360    1.0541487203
C       -3.0909725054   -1.0972364093    1.8621898158
C       -0.8119705623   -0.5331112740    1.3636162304
C       -2.5567761096   -1.8195132019    2.9497043910
C       -0.0433394632    1.0108214881   -0.6198859445
C        0.5346093292   -0.3620737616   -0.8728932683
C        0.2833156501    0.1139147253    0.5584609382
C       -0.6833736579   -1.0457438042   -3.0003636892
C       -2.8716760856   -3.2062938014    4.8556930067
C       -0.2609369553   -1.4462056306   -1.5800412236
N       -0.3897206140   -1.2320351374    2.4202681466
N       -1.2573690679   -1.8765746941    3.2141308330
N        1.4905457041    0.4778382216    1.2758150941
O       -3.4297535096   -2.4728625136    3.7496320221
H       -2.5380469239    0.1376226399    0.2063184207
H       -4.1636046148   -1.0714579251    1.6967807391
H        0.6036176106    1.8718641262   -0.7517105568
H       -1.0835607638    1.1836662952   -0.8783239662
H        1.5948760793   -0.3516205282   -1.1133888980
H       -1.3345377841   -0.1653397722   -2.9832221651
H       -1.2268561793   -1.8583852659   -3.4947314867
H        0.1865704898   -0.7980353310   -3.6188661616
H       -3.7294940731   -3.6504611894    5.3615747465
H       -2.3293463564   -2.5379970065    5.5294410217
H       -2.1885155294   -3.9821978279    4.5007248093
H        0.3427820953   -2.3604638230   -1.6126641973
H       -1.1574556228   -1.7029874292   -1.0051267711
H        1.7885511128   -0.3311914748    1.8212882037
H        1.2585583432    1.1960164017    1.9631885372
29   
torsion grid (75,)
C       -2.2607331250   -0.0415191741    1.3074692667
C       -3.1491111103   -0.7068115925    2.1225495597
C       -0.9019735791   -0.4258146784    1.3374212605
C       -2.6162476758   -1.7317331328    2.9306940747
C       -0.1689852229    1.0282452192   -0.7231768416
C        0.4702430322   -0.3365185187   -0.8707910220
C        0.1778007260    0.2210872145    0.5109647405
C       -0.4368230301   -1.3576412012   -3.0033656371
C       -2.9194010087   -3.4432893018    4.5545880368
C       -0.3067680326   -1.4862125746   -1.4800862903
N       -0.4730064817   -1.4004777746    2.1440542253
N       -1.3266155905   -2.0551243085    2.9417565601
N        1.3541996102    0.6718446613    1.2349489522
O       -3.4757803124   -2.4013895749    3.7312164531
H       -2.5925351376    0.7670370417    0.6641927540
H       -4.2081965556   -0.4717713492    2.1654546480
H        0.4384055967    1.9080593191   -0.9081568472
H       -1.2110527652    1.1209797766   -1.0167554278
H        1.5301550428   -0.3179635770   -1.1144995254
H       -0.9605355895   -0.4341821332   -3.2737110239
H       -0.9936893781   -2.2005309583   -3.4269980768
H        0.5475134767   -1.3311452289   -3.4844464510
H       -3.7669169562   -3.8477040319    5.1088542235
H       -2.1689975547   -3.0378533258    5.2380871418
H       -2.4557813919   -4.2180372933    3.9385893980
H        0.1846839126   -2.4315613227   -1.2200554103
H       -1.3088738871   -1.5356441497   -1.0380285477
H        1.7084591592   -0.1147754046    1.7801468187
H        1.0796895046    1.3862214887    1.9101241338
29   
torsion grid (90,)
C       -2.2591590478    0.0346053444    1.3763242125
C       -3.1268125720   -0.6437642652    2.2025665547
C       -0.9103363789   -0.3820436608    1.3289104072
C       -2.5826143435   -1.7139448773    2.9419937156
C       -0.2401422339    1.1025140557   -0.7290266771
C        0.3834118842   -0.2651064531   -0.9186566829
C        0.1442433845    0.2760379221    0.4795273500
C       -0.3389778464   -1.4909200289   -3.0100682593
C       -2.8565522971   -3.4880548040    4.5023691217
C       -0.4267464983   -1.4156303580   -1.4805360657
N       -0.4687869462   -1.3985663338    2.0745333432
N       -1.3022294212   -2.0667719698    2.8828778223
N        1.3467658284    0.7089370731    1.1705335053
O       -3.4226476235   -2.3984326022    3.7506935380
H       -2.5981015733    0.8769913208    0.7818506755
H       -4.1769509838   -0.3872044199    2.3035547804
H        0.3685383926    1.9799214747   -0.9215427902
H       -1.2904649174    1.2070546155   -0.9871696487
H        1.4341532743   -0.2599387489   -1.1998474267
H       -0.7071595155   -0.5671013490   -3.4703441386
H       -0.9317278907   -2.3246561557   -3.4017237589
H        0.6967240374   -1.6340421515   -3.3380966883
H       -3.6887102391   -3.8974774892    5.0759129280
H       -2.0672617850   -3.1304689503    5.1685498096
H       -2.4395128495   -4.2449722379    3.8331699615
H       -0.0695258309   -2.3552575115   -1.0404319875
H       -1.4760310643   -1.3186706224   -1.1779078650
H        1.7218464650   -0.0913588646    1.6807391402
H        1.0991707160    1.4059200128    1.8736831845
29   
torsion grid (105,)
C       -2.2598529926    0.0681553101    1.4102304131
C       -3.1188113108   -0.6230347351    2.2347594516
C       -0.9160528640   -0.3594166076    1.3275398558
C       -2.5731935521   -1.7172777943    2.9371381988
C       -0.2637619476    1.1754742856   -0.6963363281
C        0.3203812358   -0.2001792781   -0.9465676585
C        0.1306425658    0.3061321686    0.4749464378
C       -0.2411521645   -1.6166008880   -2.9695934294
C       -2.8365316832   -3.5252261346    4.4602313489
C       -0.5322690672   -1.3318790811   -1.4907481030
N       -0.4729798934   -1.4010778494    2.0367353091
N       -1.2983535206   -2.0817389749    2.8433289238
N        1.3605999569    0.6894104092    1.1466963109
O       -3.4051017503   -2.4123664191    3.7454007767
H       -2.6015074642    0.9289308256    0.8444364155
H       -4.1641330029   -0.3585546274    2.3617671845
H        0.3611092694    2.0437880898   -0.8784697492
H       -1.3168426608    1.3132472390   -0.9258107350
H        1.3642626366   -0.2176009941   -1.2511477076
H       -0.4331878950   -0.7330178453   -3.5889111215
H       -0.8639872676   -2.4351254313   -3.3462024545
H        0.8071293299   -1.9010912875   -3.1131896240
H       -3.6619188595   -3.9394609185    5.0400669882
H       -2.0308578291   -3.1915958269    5.1192177836
H       -2.4404511322   -4.2703886672    3.7656077594
H       -0.3407334882   -2.2390080354   -0.9033617781
H       -1.5959644996   -1.1016564273   -1.3579987157
H        1.7280489927   -0.1337985865    1.6249292593
H        1.1484067202    1.3722213563    1.8749423379
29   
torsion grid (120,)
C       -2.1522220649   -0.1980439441    1.1978201321
C       -3.0129402377   -0.8864736044    2.0195482745
C       -0.7607900655   -0.4160409860    1.3410235907
C       -2.4285430341   -1.7712207137    2.9503355770
C       -0.0730241396    1.2527293338   -0.5710286533
C        0.3701557635   -0.1322651784   -0.9856878199
C        0.2934759139    0.2468292672    0.4958034166
C       -0.1466148093   -1.5622882587   -3.0110753649
C       -2.6564346466   -3.3586710366    4.7061135829
C       -0.5926847628   -1.1356989609   -1.6063537665
N       -0.2881349021   -1.2670467723    2.2549764934
N       -1.1178521889   -1.9465893798    3.0608972161
N        1.5854821104    0.4703479651    1.1167294323
O       -3.2644800030   -2.4587756327    3.7612375725
H       -2.5362800875    0.5043226471    0.4661754781
H       -4.0915757910   -0.7699848796    1.9792532962
H        0.6225019655    2.0761786444   -0.6971811558
H       -1.1157846681    1.5136509630   -0.7263257981
H        1.3984651542   -0.2063858070   -1.3305538276
H       -0.0766623344   -0.7005386746   -3.6844848667
H       -0.8509523549   -2.2769929642   -3.4500130875
H        0.8386656623   -2.0399283645   -2.9782413704
H       -3.4906155117   -3.8037986523    5.2493396641
H       -1.9966360505   -2.8164041348    5.3882508370
H       -2.0770220403   -4.1286488766    4.1901616056
H       -0.6547930230   -2.0280721132   -0.9706514621
H       -1.6064685913   -0.7221462323   -1.6525212495
H        1.8747722068   -0.4005824500    1.5625485107
H        1.4726798719    1.1410063454    1.8781049886
29   
torsion grid (135,)
C       -2.1409085854   -0.3811169212    1.0862994855
C       -2.9980738427   -1.0622581518    1.9157189269
C       -0.7468246131   -0.4718449316    1.3291055589
C       -2.4106351549   -1.8138417328    2.9564032722
C       -0.0839264064    1.3191640652   -0.4660831291
C        0.3053717047   -0.0282266587   -1.0266521089
C        0.2984705951    0.2096956493    0.4899816470
C       -0.1012071161   -1.5290930803   -3.0261501205
C       -2.6338390184   -3.2569089989    4.8327366788
C       -0.6908395428   -0.9410978898   -1.7372187748
N       -0.2727460781   -1.2052424146    2.3384209003
N       -1.1013166760   -1.8782332873    3.1537093112
N        1.6203790681    0.3500669104    1.0670442418
O       -3.2447894008   -2.4906610341    3.7783234694
H       -2.5305791894    0.2145365591    0.2682937718
H       -4.0772545685   -1.0395435022    1.7998608958
H        0.6266575589    2.1355690448   -0.5460490467
H       -1.1265643313    1.6152945099   -0.5379176697
H        1.3217784500   -0.0790652996   -1.4079683713
H        0.1850558277   -0.7379167214   -3.7280962501
H       -0.8232664570   -2.1808906816   -3.5293492627
H        0.7935574525   -2.1229799753   -2.8099743422
H       -3.4661094046   -3.7160537076    5.3671697272
H       -2.0575710621   -2.6091903698    5.4984043928
H       -1.9702602347   -4.0218226784    4.4211680626
H       -0.9890086733   -1.7664688018   -1.0799152478
H       -1.6097760232   -0.3939590960   -1.9790317542
H        1.9060968162   -0.5591363770    1.4308380234
H        1.5541208294    0.9511072226    1.8896380801
29   
torsion grid (150,)
C       -2.1371087105   -0.3095260139    1.0837868749
C       -2.9733579885   -1.0000837586    1.9270765190
C       -0.7366433965   -0.4159037829    1.2796819764
C       -2.3591091807   -1.7766355419    2.9331862882
C       -0.1239316751    1.4030229590   -0.5031864000
C        0.2503695836    0.0676550663   -1.0991606692
C        0.2863679733    0.2752165648    0.4214962570
C       -0.0903382177   -1.6710009409   -2.9115740587
C       -2.5340368999   -3.2542768848    4.7878338711
C       -0.7579647895   -0.8232193685   -1.8207219984
N       -0.2367737918   -1.1727167748    2.2587872713
N       -1.0444519296   -1.8550420844    3.0867961998
N        1.6238454275    0.4054281575    0.9641638376
O       -3.1718958330   -2.4632225766    3.7681967820
H       -2.5475787096    0.3059533906    0.2907762576
H       -4.0554575798   -0.9663706523    1.8466269878
H        0.5837860380    2.2211726813   -0.5902386673
H       -1.1684022311    1.6992996702   -0.5373871495
H        1.2566994979    0.0353181472   -1.5083627095
H        0.3901995830   -1.0376163631   -3.6654249929
H       -0.8224901671   -2.3054802608   -3.4222273000
H        0.6792353834   -2.3229388345   -2.4837444955
H       -3.3526885081   -3.7172114323    5.3397405533
H       -1.9315998073   -2.6238983574    5.4469337358
H       -1.8902553630   -4.0162084482    4.3408406064
H       -1.2612800890   -1.4923640395   -1.1143342395
H       -1.5456357160   -0.2095071511   -2.2755434795
H        1.9168177225   -0.5088246165    1.3089807812
H        1.5814453431    0.9971860670    1.7949924542
29   
torsion grid (165,)
C       -1.9872800097   -0.1981789363    1.3103805687
C       -2.8194963299   -0.9352004589    2.1191986050
C       -0.5887569968   -0.3998321571    1.4125895523
C       -2.2014437468   -1.8507403691    2.9968339611
C        0.0300979899    1.4597211952   -0.3398466844
C        0.4170056105    0.1320236286   -0.9436390644
C        0.4336094279    0.3207784704    0.5767308995
C        0.1090489857   -1.8280624936   -2.5212496160
C       -2.3665116176   -3.5168814271    4.6856096345
C       -0.5831591029   -0.7328249242   -1.6996243777
N       -0.0842374676   -1.2842936328    2.2764334680
N       -0.8862113401   -2.0114683436    3.0688800296
N        1.7657063744    0.4462307744    1.1363773643
O       -3.0085928240   -2.5859930048    3.7948076479
H       -2.3993065744    0.5271868123    0.6173164480
H       -3.9003628079   -0.8345511220    2.1059465554
H        0.7363717566    2.2807479127   -0.4079476958
H       -1.0144601609    1.7530844330   -0.3900144042
H        1.4261328142    0.1095381643   -1.3477348311
H        0.7860621716   -1.3918575202   -3.2639426460
H       -0.6220560264   -2.4451979388   -3.0542284857
H        0.7008490654   -2.4879608156   -1.8771577069
H       -3.1817065414   -3.9967602241    5.2280622261
H       -1.6981050328   -2.9950226725    5.3752178646
H       -1.7892957234   -4.2556153109    4.1235892017
H       -1.3017886896   -1.1935744271   -1.0136244434
H       -1.1709225641   -0.0994788392   -2.3766144212
H        2.0592978831   -0.4750085773    1.4617949508
H        1.7136585780    1.0227588224    1.9772557661
29   
torsion grid (180,)
C       -1.9656415328    0.2379042523    1.6086984393
C       -2.7555963706   -0.5128391339    2.4506357217
C       -0.7024170961   -0.2728324261    1.2386663797
C       -2.2239288799   -1.7468385330    2.8779518726
C       -0.2304724241    1.4615967087   -0.6724897554
C        0.2834654232    0.1143222317   -1.1311735765
C        0.2669894800    0.4543247272    0.3462420687
C        0.0770863129   -2.1938142044   -2.1549320821
C       -2.4350360006   -3.7578759027    4.1307811048
C       -0.6502248490   -0.9009116515   -1.7660143624
N       -0.2646271101   -1.4492448441    1.6960374206
N       -1.0224703173   -2.1882003284    2.5169206716
N        1.5735172329    0.7365405473    0.9162719164
O       -2.9888905504   -2.5008589303    3.6989301097
H       -2.2976924067    1.2037481198    1.2409534732
H       -3.7376205782   -0.1950442039    2.7873980831
H        0.3933864125    2.3349086370   -0.8320460662
H       -1.3000193095    1.6362224801   -0.7563359711
H        1.2856353438    0.1360913832   -1.5538450792
H        0.8834828808   -1.9880263915   -2.8677336692
H       -0.6080185202   -2.9102412948   -2.6209110496
H        0.5193524287   -2.6707665669   -1.2736736395
H       -3.2001150833   -4.1980934152    4.7709835696
H       -1.5079832247   -3.6016133081    4.6882561368
H       -2.2288100572   -4.4049860034    3.2744460245
H       -1.4835352357   -1.1289801886   -1.0920134886
H       -1.0967635005   -0.4559261158   -2.6651215809
H        1.9725873184   -0.1432008141    1.2453027425
H        1.4639838289    1.3300955034    1.7390411178
