12   
torsion grid (-165,)
C        0.1201794507   -0.9808549084    1.9508205797
C       -0.6341583854   -0.0215279785   -0.5209044806
N       -2.0515340618   -0.4894892662   -0.3840606521
O       -2.4969543866   -1.1711063696   -1.3037696231
O       -2.6689867630   -0.1472219930    0.6286980857
O        1.5718200259    0.8597086522    0.6316043390
S        0.1366768046    0.6197929355    1.0537089422
H        0.6628302311   -0.8038954048    2.8817934677
H        0.6502009147   -1.7274035838    1.3540996618
H       -0.9062307827   -1.2826139381    2.1676134570
H       -0.6367862226    0.8128755078   -1.2251047608
H       -0.0324196801   -0.8395516046   -0.9192761256
12   
torsion grid (-150,)
C        0.0922697532   -0.9945906541    1.9248652396
C       -0.6317165734    0.0195687670   -0.5309967289
N       -2.0178412993   -0.5088467981   -0.3520102125
O       -2.3857347201   -1.3921002773   -1.1238744523
O       -2.6948547038   -0.0089842273    0.5524002947
O        1.6020662851    0.8255866185    0.6413590544
S        0.1603384795    0.6207712845    1.0549445604
H        0.6493488873   -0.8528554576    2.8533105291
H        0.5867983383   -1.7519773290    1.3117718676
H       -0.9424365577   -1.2619914951    2.1491754283
H       -0.6969321822    0.8883589621   -1.1888605642
H       -0.0066685621   -0.7542273452   -0.9768621251
12   
torsion grid (-135,)
C       -0.1129295323   -0.2536764651    2.0654420876
C       -0.4890224263   -0.5868215224   -0.6433964850
N       -1.9357899619   -0.7755668504   -0.3485598226
O       -2.3709463603   -1.9267060499   -0.3305925722
O       -2.5915445685    0.2498137672   -0.1314224928
O        1.7958300078    0.4050510252    0.2864707585
S        0.3213469543    0.6421301576    0.5223773066
H        0.4167900611    0.2676160368    2.8654882657
H        0.2433884599   -1.2842650956    1.9975210442
H       -1.1898045477   -0.2070233916    2.2423682088
H       -0.4027717742   -0.1602351074   -1.6437134848
H        0.0300908330   -1.5416044559   -0.5667599230
12   
torsion grid (-120,)
C       -0.1242320436   -0.2843285845    2.0547691109
C       -0.4879948135   -0.5674809609   -0.6656091157
N       -1.9214421989   -0.7617186797   -0.3352910373
O       -2.2995820798   -1.9015508320   -0.0566516760
O       -2.6229888037    0.2564917555   -0.3236907280
O        1.7993088553    0.4081734407    0.3044476708
S        0.3238744813    0.6382302718    0.5324261403
H        0.4106055503    0.2150199152    2.8653566770
H        0.2152490593   -1.3187527657    1.9669672837
H       -1.2009551293   -0.2286709766    2.2311883319
H       -0.4180951773   -0.1091018971   -1.6518887500
H        0.0408894448   -1.5175986383   -0.6068010165
12   
torsion grid (-105,)
C       -0.1208212279   -0.3107699520    2.0603073175
C       -0.4952544396   -0.5416594634   -0.6787524572
N       -1.9228635815   -0.7523629124   -0.3445201739
O       -2.2386695587   -1.8297681451    0.1698563285
O       -2.6820718377    0.2026709686   -0.5419561636
O        1.7996558085    0.3949255750    0.3120094273
S        0.3274083546    0.6305181654    0.5520799414
H        0.4292647574    0.1691991895    2.8726032231
H        0.1985650319   -1.3493606446    1.9531084481
H       -1.1949895266   -0.2434096606    2.2466095558
H       -0.4280748386   -0.0537853052   -1.6498697603
H        0.0424882030   -1.4874857667   -0.6362527957
12   
torsion grid (-90,)
C       -0.0145569355   -0.3891105557    2.0997867828
C       -0.5382791089   -0.5589760557   -0.6270651367
N       -2.0060100796   -0.6669742035   -0.4367040777
O       -2.4124760821   -1.5359578368    0.3442410108
O       -2.7101968191    0.1601928710   -1.0206109694
O        1.7105448083    0.5579608315    0.2726630955
S        0.2395646931    0.6407834617    0.6071783081
H        0.4437793192    0.1645609752    2.9222027249
H        0.4982118651   -1.3429926968    1.9590068760
H       -1.0797994753   -0.5370361681    2.2868681362
H       -0.3392183061   -0.1285509739   -1.6065271389
H       -0.0769267344   -1.5351876004   -0.4858167208
12   
torsion grid (-75,)
C        0.0764041135   -0.4649555920    2.1232271536
C       -0.5759585855   -0.5739837319   -0.5777221794
N       -2.0607473653   -0.5899846384   -0.5138817137
O       -2.5709498901   -1.1733818682    0.4514751010
O       -2.6759191046    0.0176529818   -1.3901319737
O        1.6038332048    0.7293698073    0.2679213200
S        0.1496892994    0.6460238262    0.6698593867
H        0.4437243488    0.1169314171    2.9712304457
H        0.7410101137   -1.3117043735    1.9357773378
H       -0.9514600086   -0.7904813195    2.2927708628
H       -0.2662343543   -0.2036634039   -1.5526493623
H       -0.1987546269   -1.5731110566   -0.3626534875
12   
torsion grid (-60,)
C        0.1181819413   -0.5178505534    2.1327904674
C       -0.5913121091   -0.5580100769   -0.5553756274
N       -2.0799280784   -0.5553940825   -0.5547694056
O       -2.6304622375   -0.8708881964    0.5080312781
O       -2.6552664264   -0.2111233040   -1.5856146998
O        1.5321866241    0.8356057342    0.2956748415
S        0.0939213833    0.6495873079    0.7219374106
H        0.4837946514    0.0478106671    2.9923391531
H        0.8163257208   -1.3240332258    1.8942714700
H       -0.8900172223   -0.8928784407    2.3162047338
H       -0.2346974446   -0.2063396360   -1.5212550041
H       -0.2480896576   -1.5677741452   -0.3290117265
12   
torsion grid (-45,)
C        0.1251407011   -0.5491654194    2.1343754357
C       -0.5938391544   -0.5184691476   -0.5509223503
N       -2.0851836682   -0.5497343017   -0.5612586624
O       -2.6434740946   -0.6251434066    0.5400419107
O       -2.6511070632   -0.4863589601   -1.6502758275
O        1.5177623294    0.8635905766    0.3267509088
S        0.0819252603    0.6549909162    0.7547618894
H        0.5110589971   -0.0073020499    3.0003016044
H        0.8144461234   -1.3530655701    1.8642495884
H       -0.8821173719   -0.9204036186    2.3290914233
H       -0.2413217528   -0.1477663190   -1.5117478061
H       -0.2386531613   -1.5324606515   -0.3601452235
12   
torsion grid (-30,)
C        0.1094049634   -0.5704314980    2.1290447821
C       -0.5873689121   -0.4680960503   -0.5562346222
N       -2.0807720299   -0.5593953098   -0.5422976340
O       -2.6404242377   -0.4192137524    0.5505139284
O       -2.6408492776   -0.7659843380   -1.6158831749
O        1.5425830369    0.8424113490    0.3522230735
S        0.0992641329    0.6608403913    0.7721524878
H        0.5228444052   -0.0578995394    3.0001376840
H        0.7667884590   -1.3945511037    1.8408037065
H       -0.9084583213   -0.9073910622    2.3306652688
H       -0.2753688860   -0.0528604353   -1.5136903299
H       -0.1930061879   -1.4787166028   -0.4322122791
12   
torsion grid (-15,)
C        0.0806967225   -0.5846133727    2.1195600454
C       -0.5774381478   -0.4126934679   -0.5656889076
N       -2.0664862399   -0.5835485235   -0.5096258991
O       -2.6390713244   -0.2583437783    0.5346887271
O       -2.6055354053   -1.0382899552   -1.5150153281
O        1.5839964151    0.7943978811    0.3717432940
S        0.1309647035    0.6681251517    0.7824730367
H        0.5352522618   -0.1107139709    2.9920350101
H        0.6827850143   -1.4437567329    1.8134063624
H       -0.9527990734   -0.8617923432    2.3328778088
H       -0.3308854259    0.0666265578   -1.5133882191
H       -0.1268423555   -1.4066853974   -0.5278430396
12   
torsion grid (0,)
C        0.0489138264   -0.5979031083    2.1046853142
C       -0.5672580222   -0.3631585771   -0.5785725109
N       -2.0443622963   -0.6080091113   -0.4719309960
O       -2.6406517098   -0.1147812117    0.4894055269
O       -2.5497118481   -1.2858904134   -1.3624495114
O        1.6250382339    0.7436827761    0.3898799879
S        0.1644156075    0.6734692546    0.7882756491
H        0.5373587234   -0.1650180370    2.9802103931
H        0.5961430213   -1.4873634453    1.7825300895
H       -0.9970303106   -0.8167123058    2.3262269099
H       -0.3931648510    0.1816103858   -1.5079635324
H       -0.0650532295   -1.3312141581   -0.6250744290
12   
torsion grid (15,)
C        0.0141600953   -0.6121273446    2.0836411291
C       -0.5570275960   -0.3179934174   -0.5971860843
N       -2.0137793233   -0.6296779045   -0.4307299777
O       -2.6401102113    0.0112037533    0.4183879169
O       -2.4755048913   -1.5047410693   -1.1586611728
O        1.6629334471    0.6965117961    0.4092908319
S        0.1967722123    0.6770416456    0.7907407029
H        0.5293247536   -0.2229959482    2.9643732660
H        0.5075723327   -1.5264981458    1.7448243805
H       -1.0413777611   -0.7751312571    2.3091264953
H       -0.4568256786    0.2879095497   -1.4999524076
H       -0.0115002344   -1.2547896094   -0.7186321892
12   
torsion grid (30,)
C       -0.0134466214   -0.6322415084    2.0594069652
C       -0.5508308704   -0.2816982651   -0.6188916915
N       -1.9842531652   -0.6381999487   -0.3936240322
O       -2.6504571778    0.1337911141    0.3039275521
O       -2.3911989468   -1.6784364065   -0.9071311472
O        1.6896370847    0.6644960960    0.4298364354
S        0.2201286182    0.6761733830    0.7928479540
H        0.5000650693   -0.2730764958    2.9536854428
H        0.4582024100   -1.5538446369    1.7097972120
H       -1.0755256172   -0.7713596881    2.2717780842
H       -0.5092968946    0.3752284367   -1.4898971032
H        0.0216132561   -1.1921200318   -0.7965127807
12   
torsion grid (45,)
C       -0.0412044703   -0.6564322241    2.0330526786
C       -0.5461808844   -0.2468608937   -0.6448249007
N       -1.9524435187   -0.6407949220   -0.3601966903
O       -2.6714837661    0.2225230170    0.1564221419
O       -2.2866102457   -1.7975021085   -0.6168225480
O        1.7078839943    0.6416876725    0.4524593292
S        0.2359106521    0.6716849969    0.7954610109
H        0.4941457078   -0.3369562986    2.9295806658
H        0.3852222837   -1.5913012773    1.6618958152
H       -1.1065188164   -0.7553925459    2.2531363831
H       -0.5524356499    0.4515269219   -1.4827693887
H        0.0483518584   -1.1334702899   -0.8621716061
12   
torsion grid (60,)
C       -0.0476757261   -0.6867228106    2.0155892797
C       -0.5502520624   -0.2199198586   -0.6599966873
N       -1.9396856182   -0.6297890747   -0.3434328715
O       -2.7249901494    0.2798776653   -0.0518158872
O       -2.1963098002   -1.8360283315   -0.3288079117
O        1.7126262343    0.6361766298    0.4686401047
S        0.2405889616    0.6627130938    0.8057695271
H        0.4914160667   -0.3882163643    2.9171176035
H        0.3655555846   -1.6195561877    1.6258135893
H       -1.1136886615   -0.7813920814    2.2349021492
H       -0.5765571398    0.5062396509   -1.4719771182
H        0.0536094552   -1.0946702825   -0.8965788866
12   
torsion grid (75,)
C       -0.0183656959   -0.7153590521    2.0187798849
C       -0.5675268647   -0.2068618134   -0.6544185914
N       -1.9626437491   -0.6051612121   -0.3529092932
O       -2.8050565148    0.2982494027   -0.3361287289
O       -2.1727745186   -1.7920455219   -0.0817630386
O        1.7020255668    0.6460172540    0.4612785489
S        0.2360944037    0.6510381838    0.8238702127
H        0.5436912739   -0.4263047402    2.9095286603
H        0.3825181954   -1.6432469340    1.6060867854
H       -1.0782997238   -0.8165413463    2.2619930662
H       -0.5753513593    0.5267872880   -1.4586315858
H        0.0303261313   -1.0878594602   -0.8824630296
12   
torsion grid (90,)
C        0.1053538366   -0.8012954215    2.0282976964
C       -0.6082442089   -0.2471505766   -0.6005371238
N       -2.0616877327   -0.4920016896   -0.4207668572
O       -2.8338916472    0.3841238417   -0.8150111806
O       -2.3902433663   -1.5354278420    0.1573345464
O        1.5792859495    0.8300644178    0.4863017472
S        0.1374419619    0.6355253346    0.8935300357
H        0.5309101901   -0.4489597959    2.9704314470
H        0.7327897970   -1.5893604496    1.6059842029
H       -0.9193955086   -1.1472525658    2.1762890377
H       -0.4652251118    0.4375387502   -1.4340446630
H       -0.0924570147   -1.1970919549   -0.7325859978
12   
torsion grid (105,)
C        0.1824434356   -0.8577900586    2.0246864412
C       -0.6366212940   -0.2670567808   -0.5665881031
N       -2.1111575974   -0.4229451383   -0.4586047438
O       -2.8154731748    0.3147562435   -1.1475186989
O       -2.5243524310   -1.2608394605    0.3536066115
O        1.4852971656    0.9475982776    0.5258087823
S        0.0718272614    0.6173386687    0.9458843831
H        0.5590689372   -0.5047948688    2.9870640282
H        0.8970918933   -1.5522247137    1.5764724239
H       -0.8038062639   -1.3114010460    2.1371014883
H       -0.4085015636    0.3792296728   -1.4114024123
H       -0.1811792234   -1.2531587474   -0.6512873095
12   
torsion grid (120,)
C        0.2244394250   -0.8997559229    2.0183463326
C       -0.6519924985   -0.2609153270   -0.5427797061
N       -2.1345966500   -0.3829810830   -0.4808271048
O       -2.7934469959    0.1526260100   -1.3701965567
O       -2.5963749347   -1.0005496524    0.4873065676
O        1.4230438809    1.0155202974    0.5690243437
S        0.0307726647    0.6024227152    0.9888288024
H        0.6125378967   -0.5625054462    2.9817441323
H        0.9534262033   -1.5531607939    1.5326794749
H       -0.7435212874   -1.3885043556    2.1400768246
H       -0.3817710844    0.3688375679   -1.3879008806
H       -0.2278794747   -1.2623219612   -0.6210793389
12   
torsion grid (135,)
C        0.2325291807   -0.9271503189    2.0105871574
C       -0.6568329805   -0.2274718670   -0.5287430274
N       -2.1407818818   -0.3736925107   -0.4821356264
O       -2.7766160826   -0.0747217121   -1.4903436145
O       -2.6219476884   -0.7874628113    0.5796135332
O        1.4146701507    1.0264541732    0.6001683109
S        0.0251383375    0.5979461308    1.0174782269
H        0.6379936373   -0.6111529053    2.9739768901
H        0.9526141898   -1.5715374966    1.5000873323
H       -0.7346937275   -1.4149103793    2.1404433498
H       -0.3912229906    0.4162904373   -1.3653743729
H       -0.2262129997   -1.2238786916   -0.6405352684
12   
torsion grid (150,)
C        0.2181876803   -0.9463120188    2.0008320202
C       -0.6537801622   -0.1794131377   -0.5208306898
N       -2.1345920478   -0.3865164995   -0.4687102929
O       -2.7460330511   -0.3401983800   -1.5331050477
O       -2.6310423218   -0.6027764351    0.6420788060
O        1.4396527967    1.0042427527    0.6186771051
S        0.0409741434    0.6004717685    1.0348073789
H        0.6513827376   -0.6562937198    2.9603391135
H        0.9088134867   -1.6062147403    1.4698178823
H       -0.7604427337   -1.4061443316    2.1460037312
H       -0.4278096827    0.5008569924   -1.3409856892
H       -0.1906737005   -1.1529902027   -0.6937014268
12   
torsion grid (165,)
C        0.1892487155   -0.9593373273    1.9896279668
C       -0.6474319428   -0.1234311214   -0.5156467387
N       -2.1162781336   -0.4184734586   -0.4463589714
O       -2.6859830934   -0.6262592466   -1.5142620350
O       -2.6406935345   -0.4440680656    0.6710294229
O        1.4836695977    0.9579425617    0.6242113741
S        0.0710871159    0.6073749832    1.0456706154
H        0.6653835743   -0.7028823439    2.9382805414
H        0.8268145420   -1.6520391856    1.4346177702
H       -0.8078816082   -1.3670091830    2.1626926554
H       -0.4893712874    0.6103563523   -1.3063597417
H       -0.1339268007   -1.0534619170   -0.7682799684
12   
torsion grid (180,)
C        0.1563947576   -0.9706215190    1.9724476861
C       -0.6415672322   -0.0700155518   -0.5145434994
N       -2.0890219985   -0.4545707273   -0.4153986069
O       -2.6033807486   -0.9074662451   -1.4343598806
O       -2.6549314324   -0.2877786044    0.6685860102
O        1.5322468951    0.9024104464    0.6228851175
S        0.1070999573    0.6137864769    1.0505834674
H        0.6623221777   -0.7514640397    2.9150545827
H        0.7460260778   -1.6903488872    1.3990708035
H       -0.8569361463   -1.3280448898    2.1629534520
H       -0.5642387868    0.7177335566   -1.2657473909
H       -0.0793763758   -0.9449079671   -0.8463088505
