14   
torsion grid (-165,)
C       -0.8965471475   -2.3401406408   -0.6930741415
C        0.3053618560   -2.2407871654   -0.0316467742
C        0.7887691512   -1.1531616684    0.8833113763
N       -1.0542977894   -3.4916371887   -1.4238204991
N       -0.0527112341   -4.2914024078   -1.3819233375
N        2.8498784092   -0.2562366341    1.8453289243
N        2.2458614580   -1.0113175827    0.7968099368
S        1.2179960246   -3.6468719308   -0.3891408277
H       -1.6967231197   -1.6086453363   -0.6822585576
H        0.2330981023   -0.2222372786    0.6781002456
H        0.5576428139   -1.4404932311    1.9161717443
H        2.2523028143    0.5191968452    2.1463223985
H        2.9802814653   -0.8788459214    2.6398706345
H        2.5164211355   -0.5860467349   -0.0863590303
14   
torsion grid (-150,)
C       -0.9155905969   -2.4470277892   -0.6374207352
C        0.3112464901   -2.2263783158   -0.0561743326
C        0.7727435268   -1.0610840426    0.7736182252
N       -1.0308693153   -3.6493856701   -1.2904930342
N        0.0278947669   -4.3739526346   -1.2633318383
N        2.8546125217   -0.3846547873    1.8998852779
N        2.2361107317   -0.9390146615    0.7420427236
S        1.3014158013   -3.5846734071   -0.3888264699
H       -1.7649768318   -1.7732478042   -0.6207431231
H        0.2385782884   -0.1481697696    0.4657421205
H        0.4911961317   -1.2544993537    1.8153107492
H        2.2927977664    0.3651621180    2.3121019841
H        2.9469131823   -1.1273340508    2.5893747567
H        2.5483076147   -0.4083614927   -0.0658235678
14   
torsion grid (-135,)
C       -0.9430789294   -2.4712812844   -0.5394827047
C        0.3103038642   -2.1555737832   -0.0688548096
C        0.7740250956   -0.9289798811    0.6707238034
N       -1.0347799476   -3.7030733210   -1.1389898388
N        0.0663089409   -4.3628838935   -1.1706760718
N        2.8492783491   -0.5155294080    1.9525273016
N        2.2436964918   -0.8506727824    0.7076133196
S        1.3518339823   -3.4665494186   -0.4308961574
H       -1.8293980337   -1.8495532280   -0.4774307275
H        0.3071931025   -0.0359552122    0.2308776871
H        0.4134894329   -0.9932905279    1.7038344410
H        2.3006969213    0.1744337879    2.4720505766
H        2.9062835576   -1.3632884457    2.5122719705
H        2.6004628798   -0.2102257401    0.0059901636
14   
torsion grid (-120,)
C       -0.9382556592   -2.5188994691   -0.4145379305
C        0.3376361121   -2.1020295133   -0.1128844397
C        0.8052735824   -0.8191707983    0.5251482455
N       -1.0118273864   -3.7617486401   -0.9929599086
N        0.1237144951   -4.3384511459   -1.1606627302
N        2.7843975390   -0.6665444534    2.0027639639
N        2.2710845893   -0.7945271194    0.6780672847
S        1.4195930063   -3.3401657527   -0.5927718627
H       -1.8548279735   -1.9665034907   -0.2388693747
H        0.4656233269    0.0239875295   -0.0904703996
H        0.3224677990   -0.7047686414    1.5037889384
H        2.1864718384   -0.0723340600    2.5829504041
H        2.8068326250   -1.5935853029    2.4225434382
H        2.6761660547   -0.0429873140    0.1300903459
14   
torsion grid (-105,)
C       -0.9078595580   -2.5632211936   -0.2433983614
C        0.3686801488   -2.0609690028   -0.1411118013
C        0.8352115983   -0.7300774812    0.3871556008
N       -0.9871738487   -3.8142560193   -0.8034059081
N        0.1439046518   -4.3199788014   -1.1392633830
N        2.6691040303   -0.7957202251    2.0298457352
N        2.2814759142   -0.7278010581    0.6557073628
S        1.4453550183   -3.2350398943   -0.7709501501
H       -1.8204184185   -2.0696626900    0.0722338168
H        0.6224315192    0.0298065421   -0.3756308695
H        0.2498735246   -0.4546833350    1.2765619629
H        1.9842789058   -0.3279566765    2.6302019753
H        2.6954131543   -1.7772527769    2.3000706277
H        2.6993057461    0.1194854325    0.2842270570
14   
torsion grid (-90,)
C       -0.8540610662   -2.5570214988   -0.1072590270
C        0.4072601835   -2.0100175319   -0.1435235813
C        0.8640182695   -0.6437882271    0.2894399677
N       -0.9409529338   -3.8300889974   -0.6145586044
N        0.1700282414   -4.3131410601   -1.0354937633
N        2.5629206142   -0.9223608382    2.0296648242
N        2.2837324846   -0.6413943951    0.6553555815
S        1.4636080407   -3.1730129770   -0.8276083042
H       -1.7494238379   -2.0807729254    0.2764935676
H        0.7417521777    0.0430593489   -0.5578432165
H        0.2115993437   -0.2740247156    1.0975181882
H        1.8030954602   -0.5927612712    2.6323065604
H        2.6199920805   -1.9336425961    2.1359641193
H        2.6838904717    0.2723171966    0.4623898610
14   
torsion grid (-75,)
C       -0.7803120317   -2.5449102359    0.0102806321
C        0.4546774342   -1.9646142377   -0.1586433054
C        0.8935198636   -0.5693005005    0.1853108664
N       -0.8702917637   -3.8413989331   -0.4339914576
N        0.2129153924   -4.3131799069   -0.9292276113
N        2.4617774699   -1.0352863089    1.9960684349
N        2.2766119869   -0.5491766252    0.6647364871
S        1.4851264329   -3.1271990879   -0.8840570001
H       -1.6532217897   -2.0761950714    0.4505636880
H        0.8519781452    0.0532776610   -0.7171582884
H        0.1769668186   -0.1417916612    0.9088818282
H        1.6396339729   -0.8412559382    2.5760830794
H        2.5683188221   -2.0465802507    1.9463565754
H        2.6353728772    0.4014821369    0.6422817961
14   
torsion grid (-60,)
C       -0.8610490823   -2.3169542760   -0.4617030111
C        0.3160965614   -1.9197969780    0.1340392555
C        0.6013625437   -0.5989712631    0.8079562532
N       -0.8328840153   -3.5658726485   -1.0287224351
N        0.2871556330   -4.1794062294   -0.9144383875
N        2.8149390565   -0.3600006931   -0.0573761338
N        1.5406787550    0.2770976432    0.0993465228
S        1.4414215150   -3.2015414716   -0.0560255526
H       -1.7771485009   -1.7380935388   -0.5059504149
H       -0.3394267040   -0.0497285443    0.9167182412
H        1.0055163386   -0.7684066193    1.8091579559
H        2.9162832380   -0.7949462395   -0.9751731807
H        3.5311849314    0.3569395838    0.0350965509
H        1.1441742048    0.5346588986   -0.8051386103
14   
torsion grid (-45,)
C       -0.8453607436   -2.3415839945   -0.4499236527
C        0.3350624224   -1.8958369580    0.1035561808
C        0.5731445801   -0.5686119244    0.7817589042
N       -0.8014623761   -3.6079603822   -0.9757529278
N        0.3378549886   -4.1888263223   -0.8624253017
N        2.7872531467   -0.4294327540   -0.1366904425
N        1.6005653165    0.3040497790    0.1905389767
S        1.4858936114   -3.1566200683   -0.0727188593
H       -1.7766982243   -1.7871369209   -0.4898178428
H       -0.3628810667   -0.0023555564    0.7997296326
H        0.8594981424   -0.7547040073    1.8222020633
H        2.8146322007   -0.6948598947   -1.1211994275
H        3.5854967918    0.1718637155    0.0550060779
H        1.2134545481    0.7435329825   -0.6447975940
14   
torsion grid (-30,)
C       -0.8481958713   -2.3806302434   -0.4287515296
C        0.3438031829   -1.8839679181    0.0514366399
C        0.5433199845   -0.5506980522    0.7281543054
N       -0.7942092134   -3.6627404593   -0.9146869145
N        0.3673704891   -4.2059428323   -0.8367825590
N        2.7700179520   -0.4702397263   -0.2149067646
N        1.6665507735    0.2975051420    0.2754728046
S        1.5213482038   -3.1173266835   -0.1441808640
H       -1.7961674791   -1.8537507593   -0.4410052600
H       -0.3739294458    0.0382191232    0.6376682917
H        0.6876607744   -0.7471567449    1.7976792113
H        2.7557668351   -0.5613163035   -1.2306098377
H        3.6271904831    0.0064769342    0.0555248339
H        1.3229834833    0.9181095616   -0.4564095575
14   
torsion grid (-15,)
C       -0.8542344172   -2.4245500484   -0.3604056851
C        0.3474257566   -1.8753725892    0.0304293436
C        0.5153076162   -0.5261494028    0.6808490168
N       -0.7883712685   -3.7213039076   -0.8043082028
N        0.3937716670   -4.2250017981   -0.7766739444
N        2.7574723391   -0.4870101510   -0.2738497113
N        1.7263412920    0.2690551987    0.3600558612
S        1.5506993926   -3.0784573606   -0.1973481042
H       -1.8177164796   -1.9270372862   -0.3355630902
H       -0.3674728506    0.0812048934    0.4586487306
H        0.5084727749   -0.6978962899    1.7653008769
H        2.7279826071   -0.4157305355   -1.2910313209
H        3.6544534175   -0.1371028428    0.0540799151
H        1.4491164260    1.0487391012   -0.2328233268
14   
torsion grid (0,)
C        0.0069799900   -2.4210942635   -0.8450425269
C        0.1489591776   -1.9194090477    0.4290936146
C        0.3612545233   -0.4836388585    0.8167504397
N       -0.1430404000   -3.7822152520   -0.9168692270
N       -0.1258925181   -4.3907832261    0.2069970898
N        2.8288621920   -1.0366797240    0.8959599465
N        1.7849061122   -0.0798295317    1.0480444655
S        0.0850080624   -3.2477765970    1.5144519511
H        0.0016250207   -1.8369631897   -1.7584176472
H       -0.0415940451    0.1271797670    0.0003035365
H       -0.2284588008   -0.2489781636    1.7088864055
H        2.5596940458   -1.9732495572    1.2040621126
H        3.0698267880   -1.0938849813   -0.0908466077
H        1.8730562650    0.2855992889    1.9903673128
14   
torsion grid (15,)
C        0.0080270550   -2.4486985955   -0.8211336372
C        0.1472392101   -1.9205268262    0.4424384319
C        0.3825506014   -0.4767207574    0.8001444472
N       -0.1681599965   -3.8081970765   -0.8640956237
N       -0.1720528211   -4.3908345092    0.2732936365
N        2.8381959576   -1.0088155932    0.8698372727
N        1.7759990967   -0.1068077095    1.1741117774
S        0.0508166366   -3.2231360950    1.5573013175
H        0.0238487149   -1.8860586017   -1.7477726195
H        0.0921796231    0.1093546296   -0.0804927707
H       -0.2794858408   -0.1701309766    1.6151055626
H        2.5506299627   -1.9877383596    0.9284497491
H        3.1401667158   -0.8337009390   -0.0864055965
H        1.8184819453    0.0400403218    2.1778704481
14   
torsion grid (30,)
C        0.0412927642   -2.4844813024   -0.7912502564
C        0.1308103914   -1.9202550219    0.4616749727
C        0.3997554274   -0.4725351009    0.7932307217
N       -0.1720868538   -3.8394129523   -0.8014401444
N       -0.2495255606   -4.3840218511    0.3524089799
N        2.8392256757   -0.9646272213    0.8074340511
N        1.7614059056   -0.1540707701    1.2771124206
S       -0.0577944909   -3.1832731376    1.6087968213
H        0.1204749954   -1.9528291631   -1.7328721509
H        0.2136577024    0.1002447750   -0.1232140432
H       -0.3064966372   -0.1078766001    1.5447501754
H        2.5474868509   -1.9292054699    0.6328058553
H        3.1618700376   -0.5762377288   -0.0769083279
H        1.7799050713   -0.2266248709    2.2907894006
14   
torsion grid (45,)
C        0.2910470708   -3.2610156261    0.7743590033
C        0.4066360914   -2.0172631287    0.1928644970
C        0.8354670180   -0.7375729659    0.8686454760
N       -0.1549432428   -4.2554824660   -0.0588747765
N       -0.4054952889   -3.8689976280   -1.2572456164
N        2.0133345017   -0.0240011912   -1.0982562783
N        2.0356928208   -0.0742826258    0.3336594937
S       -0.0803326601   -2.1759928552   -1.4450287699
H        0.5100458117   -3.5004023042    1.8093079677
H        0.0106468306   -0.0195156853    0.8118501873
H        1.0194575797   -0.9363465170    1.9287134769
H        2.4220158543    0.8633014442   -1.3831545826
H        2.5587127712   -0.7775316201   -1.5168335127
H        2.8597638346   -0.5807466183    0.6580044857
14   
torsion grid (60,)
C        0.3312415174   -3.2659771687    0.7845313860
C        0.3834893715   -2.0193568706    0.2002170561
C        0.8127520621   -0.7232274840    0.8450524516
N       -0.0689466754   -4.2813284038   -0.0467736866
N       -0.3406433864   -3.9147046282   -1.2449170521
N        2.0266946528    0.0957163957   -1.0423066152
N        2.0850808209   -0.1735801316    0.3645450553
S       -0.1039126708   -2.2020303993   -1.4352859159
H        0.5676190893   -3.4930188653    1.8183768962
H        0.0481623133    0.0427213969    0.6926853508
H        0.9130852409   -0.8841855158    1.9233283642
H        2.5730695725    0.9361514714   -1.2174357849
H        2.4253456380   -0.6642321842   -1.5950284891
H        2.8381104584   -0.8271030944    0.5830968005
14   
torsion grid (75,)
C        0.3198813401   -3.2794368729    0.8183887534
C        0.3578058003   -2.0480419650    0.2021331378
C        0.7997753096   -0.7330450892    0.7987960361
N       -0.0525024794   -4.3217294605    0.0073388328
N       -0.3113629909   -3.9972713024   -1.2033138141
N        2.0442846214    0.2332287853   -0.9959417009
N        2.1145175695   -0.2765669042    0.3406779733
S       -0.1053912084   -2.2786535996   -1.4345630951
H        0.5505771748   -3.4760865543    1.8596051708
H        0.0859149318    0.0615361810    0.5752811935
H        0.8460829533   -0.8505133558    1.8870045656
H        2.7081757431    1.0011424363   -1.0672630139
H        2.2997788327   -0.4717208443   -1.6901586727
H        2.7945896574   -1.0326374299    0.4254830105
14   
torsion grid (90,)
C        0.2840769275   -3.2826387877    0.8734921270
C        0.3532818790   -2.0785296346    0.2089577086
C        0.8121872011   -0.7484689724    0.7552813973
N       -0.0866326352   -4.3512278996    0.0958973924
N       -0.3121271304   -4.0769255292   -1.1320689777
N        2.0954468622    0.4072867333   -0.9100206537
N        2.1497446594   -0.3520157347    0.3017756275
S       -0.0771668553   -2.3677692381   -1.4277752082
H        0.4933523674   -3.4402031717    1.9257027564
H        0.1289184822    0.0570559881    0.4827785528
H        0.8245185236   -0.8247626828    1.8487173857
H        2.8537626972    1.0852693439   -0.8815167880
H        2.2285522617   -0.1793989397   -1.7371140515
H        2.7569175489   -1.1677940092    0.2252062268
14   
torsion grid (105,)
C       -0.2602188143   -3.0468060395    0.6188306982
C        0.7274867864   -2.1100658356    0.4198048915
C        1.3432324708   -1.1454458933    1.3987651360
N       -0.5782988193   -3.7889017648   -0.4912855014
N        0.0954418339   -3.4882381989   -1.5430694325
N        1.6074521015    1.1116975346    0.6247602276
N        2.2202194411   -0.1792293652    0.7214057610
S        1.2180910422   -2.2104900905   -1.2170296402
H       -0.7895302471   -3.2355598070    1.5462633637
H        0.5539185982   -0.6290205205    1.9563094711
H        1.9348452759   -1.7210232983    2.1219029391
H        1.8856629507    1.7189788638    1.3970140970
H        1.9163591108    1.5400281266   -0.2448167618
H        3.1176631807   -0.1325023592    1.2000711094
14   
torsion grid (120,)
C       -0.1751331910   -3.1776674596    0.6510623643
C        0.6444543460   -2.1011169617    0.4007758917
C        1.1803384330   -1.0629228993    1.3520289113
N       -0.4969514000   -3.9223573413   -0.4561904510
N        0.0202137641   -3.4964847338   -1.5524908951
N        1.7414058079    1.1934417707    0.7153921626
N        2.1490187124   -0.1765351513    0.6907699567
S        0.9837399003   -2.0838533551   -1.2771005796
H       -0.5724727026   -3.4727407643    1.6159892725
H        0.3515854465   -0.4502965864    1.7201830720
H        1.6225534616   -1.5686697977    2.2203046595
H        2.1606557483    1.7008057730    1.4964329912
H        2.0559042418    1.6266809544   -0.1497957463
H        3.0824582579   -0.3103532785    1.0733710295
14   
torsion grid (135,)
C       -0.1028691318   -3.2397517453    0.6803959842
C        0.5734432117   -2.0826109146    0.3701575614
C        1.0435745048   -0.9808214877    1.2807167376
N       -0.4299377209   -4.0196265815   -0.4011987933
N       -0.0479276374   -3.5483422735   -1.5327723786
N        1.8511163853    1.2420284609    0.8202802348
N        2.0712164038   -0.1570311706    0.6342432522
S        0.7810720609   -2.0388802710   -1.3292929770
H       -0.3866429511   -3.5714034159    1.6730476970
H        0.2017688875   -0.3154869642    1.4944857787
H        1.3663625748   -1.4113689157    2.2396894270
H        2.3707538392    1.6087729898    1.6200842405
H        2.1800131011    1.7193850458   -0.0159050600
H        3.0067570459   -0.4511074004    0.9086801186
14   
torsion grid (150,)
C       -0.0189225151   -3.2661332424    0.6913443290
C        0.5360200826   -2.0611198371    0.3275088556
C        0.9405703685   -0.9055725793    1.1984346899
N       -0.3260631977   -4.0961494234   -0.3583783679
N       -0.0394788769   -3.6211315025   -1.5153047404
N        1.9361376809    1.2607329491    0.9399273465
N        1.9960719650   -0.1156603435    0.5594355045
S        0.6619735352   -2.0388312477   -1.3812426306
H       -0.2250395101   -3.5977232298    1.7028904686
H        0.0883082940   -0.2294481927    1.3145007880
H        1.1974383044   -1.2751426450    2.2037618177
H        2.5217774832    1.4600700515    1.7536785507
H        2.2848620107    1.8100765222    0.1578184521
H        2.9118951138   -0.5321999318    0.7266022787
14   
torsion grid (165,)
C        0.0588247737   -3.2731645364    0.7553083791
C        0.4965125715   -2.0433552816    0.3213454536
C        0.8419612332   -0.8300936252    1.1345888304
N       -0.2199058434   -4.1692539387   -0.2468033108
N       -0.0217436752   -3.7232030394   -1.4326395730
N        2.0156336268    1.2427474596    1.0475477532
N        1.9132695670   -0.0699351073    0.4877839706
S        0.5499228542   -2.0830894833   -1.3916940854
H       -0.0782335553   -3.5762232874    1.7872142032
H       -0.0225868895   -0.1611353392    1.1824786442
H        1.0684968903   -1.1378530705    2.1687966114
H        2.6612337125    1.2711175443    1.8397418525
H        2.3778934267    1.8576425624    0.3224793108
H        2.7921526969   -0.5865958754    0.5468798670
14   
torsion grid (180,)
C       -0.8479514326   -2.2917171858   -0.7127329778
C        0.3173710626   -2.3008973634    0.0182615240
C        0.8111382972   -1.2790559763    0.9992275546
N       -1.0329417754   -3.3941823722   -1.5090993485
N       -0.0884634650   -4.2584758475   -1.4544492081
N        2.8173354343   -0.1337714505    1.7644887728
N        2.2598097977   -1.0927767987    0.8654977710
S        1.1598644228   -3.7459122844   -0.3580073837
H       -1.6007899505   -1.5116242901   -0.7073611582
H        0.2353935154   -0.3459834761    0.8650409182
H        0.6169584325   -1.6317923917    2.0195194174
H        2.1603563859    0.6301444020    1.9510075496
H        3.0024101790   -0.6067462385    2.6467638021
H        2.4848312592   -0.7849547623   -0.0781200300
