28   
torsion grid (-165,)
C       -0.7228621080   -0.6945540906   -1.3348054446
C       -3.5313963452   -1.7973821210   -3.6073743021
C       -3.9978546582   -2.0321800604   -2.1837002443
C        0.2742582871    0.6729059483    1.4141096242
C        2.1263774986    2.0981987804    1.1298484750
C       -2.5261547045   -1.8787637921   -2.4903888710
C        0.7092365886    2.1030785404    1.7045639778
C       -0.0063240910    0.6500956112   -1.1204496474
N       -1.8237346804   -0.6722524568   -2.0971438180
N        0.8910338477    0.4180514413    0.0579786714
O       -0.2248616318   -1.7010197553   -0.8109421836
O        2.0675434335    1.2272790167   -0.0425588867
O       -0.1786680226    2.9530092733    0.9919341833
H       -3.5593323775   -2.6176341140   -4.3170026036
H       -3.7336639622   -0.8227570597   -4.0449316281
H       -4.4958113238   -1.2094469565   -1.6790850953
H       -4.3486568466   -3.0193694979   -1.9005595219
H        0.7059272784   -0.0423943179    2.1140870669
H       -0.8050031749    0.5457381186    1.3524623842
H        2.4526163975    3.0732900415    0.7670321223
H        2.8547846853    1.6867654622    1.8345514436
H       -1.8875705974   -2.7507105777   -2.4175390341
H        0.7084612699    2.3042759653    2.7807444166
H       -0.6515126631    1.5029152018   -0.9131863541
H        0.6516981662    0.8758450436   -1.9623695104
H       -2.1206065566    0.2081541578   -2.5040477550
H        1.1663135950   -0.5822282952   -0.0212914080
H       -0.0446138617    3.8769595999    1.2600666462
28   
torsion grid (-150,)
C       -0.7578209410   -0.6731661236   -1.3366927869
C       -3.4243635285   -1.8887751265   -3.6720125787
C       -4.1144317627   -1.9168122422   -2.3215294179
C        0.3394576291    0.6418852257    1.3981072101
C        2.1236379853    2.1410874080    1.0636513534
C       -2.6077111735   -1.8745793816   -2.4056723198
C        0.7402687203    2.0769760860    1.7123797083
C       -0.0764460300    0.6887042429   -1.1172990956
N       -1.9013700891   -0.6645604004   -2.0326247438
N        0.8905038768    0.4518538739    0.0036925351
O       -0.1945478370   -1.6766046194   -0.8752817450
O        2.0318027623    1.3051114539   -0.1318309499
O       -0.2134133326    2.9163800342    1.0763004509
H       -3.4004654782   -2.7918878991   -4.2731396813
H       -3.4880125877   -0.9695317095   -4.2485769210
H       -4.6307064743   -1.0149380564   -2.0043206212
H       -4.5717747707   -2.8405811774   -1.9819592645
H        0.8324743091   -0.0789403967    2.0502696446
H       -0.7365927802    0.4780447432    1.3893961013
H        2.3958928656    3.1381066826    0.7162328617
H        2.9028084327    1.7348037249    1.7150148309
H       -2.0408280754   -2.7552948240   -2.1319399978
H        0.7907232114    2.2442845578    2.7931650525
H       -0.7369196794    1.5121596102   -0.8485665934
H        0.5274435523    0.9623687773   -1.9851851235
H       -2.2643850420    0.2214816764   -2.3675896161
H        1.1943248234   -0.5352338663   -0.1237123448
H       -0.0970539157    3.8355935157    1.3679329540
28   
torsion grid (-135,)
C       -0.8179486222   -0.6359695113   -1.3286785885
C       -3.3138895570   -1.9949382828   -3.6849753090
C       -4.2006412287   -1.8215070455   -2.4674254164
C        0.3802420312    0.6203660862    1.3949839004
C        2.1035883498    2.1804109952    1.0224879388
C       -2.7014541914   -1.8580333913   -2.3120945851
C        0.7582247297    2.0549679657    1.7386399792
C       -0.1680508492    0.7386153379   -1.0925374704
N       -2.0004368997   -0.6398623770   -1.9562526399
N        0.8625082486    0.4933725305   -0.0316623289
O       -0.1993899090   -1.6366350180   -0.9374150238
O        1.9712093946    1.3839748977   -0.1958622973
O       -0.2494800299    2.8875907196    1.1820101288
H       -3.2568295214   -2.9678048829   -4.1625293409
H       -3.2253900502   -1.1529951624   -4.3659268359
H       -4.7027782673   -0.8651232889   -2.3456504846
H       -4.7648870239   -2.6717398962   -2.0982196035
H        0.9256844879   -0.1076450060    1.9953798812
H       -0.6901029324    0.4265849001    1.4357011287
H        2.3308810481    3.1960879205    0.6975305113
H        2.9261963879    1.7740986783    1.6180584266
H       -2.2368005051   -2.7223746939   -1.8550785928
H        0.8605060378    2.1871245342    2.8206365306
H       -0.8379377040    1.5308823180   -0.7608866286
H        0.3817504297    1.0614287932   -1.9793014190
H       -2.4195297935    0.2456551105   -2.2190527058
H        1.1864463166   -0.4796432447   -0.2096811093
H       -0.1435698890    3.7992065604    1.5002491541
28   
torsion grid (-120,)
C       -0.8561722881   -0.6042285785   -1.3683172637
C       -3.1634154082   -2.1356234310   -3.6835818531
C       -4.2174052823   -1.7582083333   -2.6631144823
C        0.4754617446    0.5814025936    1.3267490073
C        2.1411258104    2.1923029300    0.9121104204
C       -2.7719596145   -1.8451616584   -2.2521496711
C        0.8440734873    2.0107268723    1.7014995126
C       -0.2241959904    0.7761957412   -1.1175781572
N       -2.0718715474   -0.6164822642   -1.9298203070
N        0.8734435475    0.5175684970   -0.1298464030
O       -0.1965784275   -1.6036850317   -1.0499277669
O        1.9505155228    1.4401874349   -0.3263772205
O       -0.2118944511    2.8400333625    1.2371291477
H       -3.1005548019   -3.1659275765   -4.0185179329
H       -2.9046814819   -1.3958547091   -4.4352817907
H       -4.6674841159   -0.7720757474   -2.7487515531
H       -4.8911705985   -2.5224329959   -2.2898792654
H        1.0707348560   -0.1554719788    1.8658651135
H       -0.5863341283    0.3622843073    1.4237321033
H        2.3289588754    3.2241686828    0.6140841283
H        3.0057979916    1.7815641675    1.4414295831
H       -2.4452349945   -2.6665724119   -1.6261243468
H        1.0083034865    2.1056288359    2.7797697516
H       -0.8897899426    1.5397986629   -0.7172865805
H        0.2637032920    1.1441547756   -2.0228204184
H       -2.5417329302    0.2642546682   -2.1079155588
H        1.2077433022   -0.4401197238   -0.3627603498
H       -0.1055117656    3.7417914680    1.5821864137
28   
torsion grid (-105,)
C       -0.9800433014   -0.5183368729   -1.3238329763
C       -3.0435114354   -2.2113652214   -3.5918814751
C       -4.2424671361   -1.6803377371   -2.8368886582
C        0.4747247542    0.5846181071    1.3490984735
C        2.0864913220    2.2430639788    0.9103379837
C       -2.9057956222   -1.7739858894   -2.1508380749
C        0.8395522501    2.0041765051    1.7626865960
C       -0.3654059078    0.8643428266   -1.0430768429
N       -2.2173424897   -0.5356678287   -1.8385171188
N        0.7903577246    0.5886054733   -0.1290494727
O       -0.2895618221   -1.5158586647   -1.0775768740
O        1.8374781640    1.5407131764   -0.3467830610
O       -0.2550210180    2.8310060333    1.3933439008
H       -2.9799432556   -3.2750749060   -3.7964868171
H       -2.6045432753   -1.5714689559   -4.3509918251
H       -4.6091657127   -0.6941742366   -3.1111467442
H       -5.0165636314   -2.3709019056   -2.5192873814
H        1.1121394802   -0.1622138817    1.8223130459
H       -0.5759605087    0.3412687964    1.4961428766
H        2.2403964018    3.2898409399    0.6468993226
H        2.9864332331    1.8264330291    1.3719583892
H       -2.7524360394   -2.5354958200   -1.3943187881
H        1.0630672529    2.0576743314    2.8331266527
H       -1.0249615406    1.5926678320   -0.5731258439
H        0.0632594049    1.2847793542   -1.9553743486
H       -2.7276725780    0.3357313061   -1.9288703122
H        1.1291848603   -0.3515014908   -0.4197095863
H       -0.1451791593    3.7196434385    1.7699118335
28   
torsion grid (-90,)
C       -1.0547650392   -0.5569368525   -1.1853218786
C       -2.8866440480   -2.3693014409   -3.3742861026
C       -4.1742392441   -1.7203741948   -2.9187813663
C        0.5569899819    0.4745589894    1.4389342691
C        2.1263313279    2.1583155077    0.9475590704
C       -3.0001369120   -1.8022197956   -1.9783774386
C        0.9378714391    1.8846840469    1.8703061486
C       -0.4390650366    0.8217607143   -0.8839240873
N       -2.3099600165   -0.5670253197   -1.6581707101
N        0.7750156231    0.5256637547   -0.0555409637
O       -0.3492850215   -1.5559080714   -1.0003183770
O        1.8025478854    1.4894204527   -0.3109942136
O       -0.1836404469    2.7123700589    1.5953788439
H       -2.8470495062   -3.4493198168   -3.4683242638
H       -2.2723433010   -1.8233136565   -4.0830378749
H       -4.4221877028   -0.7504707701   -3.3420413084
H       -5.0320977607   -2.3470688700   -2.6992806860
H        1.2305158825   -0.2792517250    1.8466030366
H       -0.4796461710    0.2164181437    1.6472993623
H        2.2564813729    3.2134036837    0.7053790666
H        3.0564785472    1.7360292887    1.3387739350
H       -3.0423430915   -2.4967079348   -1.1452967188
H        1.2286601321    1.9096687149    2.9254754527
H       -1.0782672015    1.5184927713   -0.3433656928
H       -0.0751261403    1.2877153299   -1.8021072131
H       -2.8356439064    0.2998440740   -1.6841531842
H        1.0972679813   -0.4038463987   -0.3964455697
H       -0.0561643344    3.5908019324    1.9899337163
28   
torsion grid (-75,)
C       -1.1269044928   -0.4961363278   -1.1444912529
C       -2.7815326896   -2.3994685796   -3.2165203893
C       -4.0926657674   -1.6683641290   -3.0402547624
C        0.5949107415    0.4768830722    1.4270487108
C        2.1092211872    2.2066419656    0.9203308815
C       -3.1018881327   -1.7277015952   -1.9041147355
C        0.9716134397    1.8785124541    1.8882399272
C       -0.5148322909    0.8824756076   -0.8341017513
N       -2.4047739304   -0.5049068315   -1.5560954636
N        0.7415911024    0.5815948489   -0.0736608116
O       -0.3996057683   -1.4885092995   -1.0256086238
O        1.7388664670    1.5730167675   -0.3436643710
O       -0.1761550394    2.6933521020    1.6965089323
H       -2.7810610869   -3.4840397739   -3.2287313545
H       -2.0253249400   -1.9347235943   -3.8405107944
H       -4.2113058481   -0.7216338507   -3.5599378145
H       -5.0064796992   -2.2429454114   -2.9320797960
H        1.2986982230   -0.2783152665    1.7768420970
H       -0.4265254893    0.1933098904    1.6739308034
H        2.2069990861    3.2716425356    0.7080946559
H        3.0650224784    1.7913416319    1.2526621658
H       -3.3283556268   -2.3581739978   -1.0491436532
H        1.3127596468    1.8726747405    2.9285353459
H       -1.1359821627    1.5547297578   -0.2436379875
H       -0.2016352714    1.3794212749   -1.7547383278
H       -2.9341303630    0.3602872772   -1.5350859906
H        1.0646584305   -0.3291656774   -0.4594253785
H       -0.0456905204    3.5596554402    2.1160799430
28   
torsion grid (-60,)
C       -1.1797304334   -0.4521104560   -1.1040153876
C       -2.7090704009   -2.4308455814   -3.0478914669
C       -3.9864226788   -1.6272583259   -3.1253765152
C        0.6413384586    0.4766981036    1.4151615544
C        2.1027264259    2.2468750073    0.8926157172
C       -3.1890891762   -1.6650170832   -1.8421415435
C        1.0153773634    1.8710050488    1.9001503886
C       -0.5758451428    0.9280395858   -0.7806749141
N       -2.4783873224   -0.4650841350   -1.4467334099
N        0.7183141051    0.6271110954   -0.0867988371
O       -0.4287154998   -1.4322267839   -1.0524775437
O        1.6867644726    1.6426984310   -0.3716692757
O       -0.1529860419    2.6706597820    1.7837098012
H       -2.7693045843   -3.5125946578   -2.9987844779
H       -1.8378444975   -2.0477618262   -3.5677975407
H       -3.9647395527   -0.7084314455   -3.7042664748
H       -4.9385708164   -2.1473525169   -3.1324605735
H        1.3726127168   -0.2755457911    1.7107442173
H       -0.3630928848    0.1679521629    1.6989366915
H        2.1729563964    3.3190864371    0.7075074650
H        3.0793027752    1.8396152938    1.1699101903
H       -3.5886721423   -2.2302123440   -1.0046325419
H        1.4030292990    1.8414238734    2.9236101825
H       -1.1804817327    1.5716349694   -0.1430059872
H       -0.3127808958    1.4569734916   -1.6991558608
H       -3.0031218630    0.4021099460   -1.3967698470
H        1.0375502801   -0.2665077354   -0.5138892972
H       -0.0183439492    3.5263127356    2.2233293149
28   
torsion grid (-45,)
C       -1.2065040697   -0.4251526608   -1.0882932787
C       -2.6796290023   -2.4834216603   -2.8948168937
C       -3.8692689299   -1.5996531405   -3.1920097052
C        0.6900238416    0.4708005136    1.3857031164
C        2.0942206008    2.2864543934    0.8620741857
C       -3.2568476880   -1.6163011985   -1.8080020832
C        1.0533553852    1.8583646721    1.8974998193
C       -0.6176681503    0.9587378914   -0.7488845984
N       -2.5226673897   -0.4501462667   -1.3565057320
N        0.7075278860    0.6659344037   -0.1128763037
O       -0.4296423854   -1.3864598610   -1.1049480360
O        1.6440269939    1.7095272685   -0.4032435071
O       -0.1346016477    2.6357908403    1.8479130677
H       -2.8303248393   -3.5529918344   -2.7968824906
H       -1.7199086035   -2.1990448223   -3.3099399106
H       -3.6959830628   -0.7198005585   -3.8046110631
H       -4.8500921856   -2.0496313246   -3.3057768523
H        1.4471484912   -0.2736396207    1.6318297820
H       -0.2965748966    0.1324580354    1.6970804860
H        2.1351318625    3.3648057394    0.7061164275
H        3.0887347663    1.8929204996    1.0912444524
H       -3.8133580079   -2.1041762762   -1.0123811515
H        1.4796529685    1.8077470674    2.9046365918
H       -1.2101262083    1.5717167590   -0.0708863302
H       -0.3999439655    1.5178331255   -1.6613488532
H       -3.0400193050    0.4200690193   -1.2812120754
H        1.0277898129   -0.2080749294   -0.5784895101
H       -0.0012920497    3.4807224255    2.3081836215
28   
torsion grid (-30,)
C       -1.2151818986   -0.3981390955   -1.1039122404
C       -2.6916434470   -2.5591510521   -2.7563177183
C       -3.7431392930   -1.5928770687   -3.2532045887
C        0.7400497574    0.4577095108    1.3358082725
C        2.0828788038    2.3254373333    0.8345601616
C       -3.3069475299   -1.5716716996   -1.8020421296
C        1.0866212957    1.8348416868    1.8860383754
C       -0.6471633450    0.9884358774   -0.7368970148
N       -2.5432189445   -0.4438826765   -1.3007071967
N        0.7045067074    0.7063835138   -0.1544213451
O       -0.4112845930   -1.3337181336   -1.1925453274
O        1.6062119851    1.7824582018   -0.4360817101
O       -0.1204391457    2.5837501035    1.9023582958
H       -2.9630391288   -3.5998243033   -2.6144820171
H       -1.6664693941   -2.3980367530   -3.0648620848
H       -3.4077312824   -0.7751047471   -3.8841388995
H       -4.7431975953   -1.9558954294   -3.4672216966
H        1.5222462888   -0.2758472422    1.5309355320
H       -0.2277234539    0.0840794748    1.6655170498
H        2.0927020844    3.4093337051    0.7166009891
H        3.0934735377    1.9492919752    1.0180116975
H       -4.0042584221   -1.9561039517   -1.0628865230
H        1.5464396094    1.7590525456    2.8767123654
H       -1.2305074792    1.5643552531   -0.0196407720
H       -0.4720319195    1.5820577496   -1.6366476177
H       -3.0560107281    0.4263169194   -1.1952293460
H        1.0295132637   -0.1421711467   -0.6622503990
H        0.0075883536    3.4145699400    2.3890556791
28   
torsion grid (-15,)
C       -1.2167837498   -0.3529476474   -1.1443789139
C       -2.7241831940   -2.6442660896   -2.6073466656
C       -3.5956740670   -1.6252627510   -3.3075920466
C        0.7928332474    0.4398086417    1.2693991467
C        2.0733175030    2.3632268887    0.8178920585
C       -3.3389769066   -1.5206919948   -1.8167064239
C        1.1225470042    1.7981316635    1.8740884268
C       -0.6704010404    1.0306665313   -0.7330428478
N       -2.5502657222   -0.4234026506   -1.2826279207
N        0.7051849486    0.7570217035   -0.2055206810
O       -0.3894581497   -1.2581632857   -1.3119145826
O        1.5711196354    1.8680641147   -0.4623996931
O       -0.1013518824    2.5139857295    1.9622749412
H       -3.1286973244   -3.6339699285   -2.4223329510
H       -1.6589820975   -2.6149525456   -2.7943320205
H       -3.0961066812   -0.9021815425   -3.9454852123
H       -4.5955074690   -1.9031654763   -3.6254018033
H        1.5983237839   -0.2816477653    1.4061297589
H       -0.1549822359    0.0263881836    1.6095212477
H        2.0527408017    3.4513502116    0.7514622153
H        3.0980804963    2.0054154677    0.9530708585
H       -4.1592466218   -1.7729603493   -1.1511215258
H        1.6146785718    1.6878951550    2.8458215611
H       -1.2439186342    1.5598254539    0.0268599663
H       -0.5372823272    1.6671387292   -1.6104687237
H       -3.0649895795    0.4400937941   -1.1378756593
H        1.0343801541   -0.0580263608   -0.7633287338
H        0.0214735667    3.3240448275    2.4840410834
28   
torsion grid (0,)
C       -1.1084824582   -0.2997631734   -1.1856134023
C       -2.6186411224   -2.7260136127   -2.4593827060
C       -3.2685030807   -1.7083516431   -3.3722823360
C        0.9382612046    0.3842559356    1.2317545594
C        2.1654195000    2.3614930184    0.8751088946
C       -3.2266850262   -1.4776383274   -1.8752118753
C        1.2529089793    1.7087464463    1.9143883618
C       -0.5857396030    1.0669020467   -0.6944874407
N       -2.4408441043   -0.3958193943   -1.3014781338
N        0.8078547998    0.7924094187   -0.2173086749
O       -0.2615857312   -1.1698503192   -1.4315118814
O        1.6433475727    1.9369514409   -0.4224549101
O        0.0161138853    2.3887115023    2.0759453600
H       -3.1481299446   -3.6511086554   -2.2550805773
H       -1.5406593115   -2.8065897491   -2.4871926142
H       -2.6051345885   -1.1027320535   -3.9824372018
H       -4.2324467741   -1.9271761567   -3.8204719911
H        1.7624078360   -0.3254198542    1.3035908526
H        0.0081771849   -0.0718650752    1.5662866970
H        2.1198179873    3.4508849431    0.8787439293
H        3.2006425382    2.0196210553    0.9638758211
H       -4.1568507720   -1.5940104234   -1.3279694117
H        1.7706370021    1.5486706575    2.8656813066
H       -1.1535585880    1.5290663988    0.1119398400
H       -0.4882081472    1.7639762115   -1.5295180780
H       -2.9701185039    0.4485686836   -1.1076487766
H        1.1403263637    0.0219122917   -0.8339209420
H        0.1344031162    3.1685114430    2.6429127083
28   
torsion grid (15,)
C       -2.5470692961    0.5666105877   -0.2117019259
C       -5.3734685348   -0.6988607993    0.3222919248
C       -5.5688622298   -0.3414266393   -1.1360147600
C        0.1823461165    0.7733885619    1.5180688633
C        2.0688667046    1.3022043448    0.2126221545
C       -5.0571869730    0.6956788621   -0.1598642396
C        1.3177024901    1.7863583384    1.4536667638
C       -1.2820612143    1.4107913339   -0.4691981597
N       -3.7066093381    1.2341129646   -0.2519909387
N       -0.1553217084    0.5757395243    0.0585260576
O       -2.3849671184   -0.6460861096   -0.0094650012
O        1.0379740982    0.8075051777   -0.6979182183
O        0.7173648670    3.0620395012    1.2796751119
H       -6.2484852097   -0.7936293892    0.9576503317
H       -4.5505188334   -1.3584408167    0.5608616435
H       -4.8511547788   -0.7555056425   -1.8372043783
H       -6.5722835538   -0.2092963392   -1.5279284667
H        0.5065030681   -0.1879179979    1.9166082496
H       -0.6970407208    1.1329908615    2.0494526162
H        2.5875208351    2.0993416762   -0.3207100765
H        2.7556884684    0.4821336214    0.4410707822
H       -5.7425507054    1.4827751088    0.1351768739
H        1.9422709207    1.7359145790    2.3514425673
H       -1.2572354846    2.3875051423    0.0121796644
H       -1.1028205584    1.5179105388   -1.5411922247
H       -3.6570022237    2.2203431203   -0.4837535440
H       -0.4676983445   -0.4043215311   -0.1035805705
H        1.3820637583    3.7622097707    1.3868190559
28   
torsion grid (30,)
C       -2.5675536454    0.6542272946   -0.3119495266
C       -5.3871025581   -0.5431668413    0.4578461708
C       -5.4705285466   -0.4704012494   -1.0539539958
C        0.1549098339    0.7170138743    1.4434492514
C        2.0492853433    1.3310057723    0.1875072612
C       -5.0683304502    0.7482576557   -0.2570895294
C        1.2954186790    1.7261642507    1.4580823878
C       -1.2977056982    1.5077544057   -0.4976097371
N       -3.7279168278    1.3183263106   -0.3226374457
N       -0.1779166810    0.6293739894   -0.0278687527
O       -2.4164728796   -0.5714698315   -0.1910819379
O        1.0198276432    0.9091412918   -0.7606023123
O        0.7017984525    3.0141746657    1.3763948575
H       -6.3047469444   -0.5583558306    1.0375354579
H       -4.5660727539   -1.1153492787    0.8700153628
H       -4.6929241145   -0.9881739029   -1.6042954958
H       -6.4424402570   -0.4468980129   -1.5364175010
H        0.4729357913   -0.2727456393    1.7709834544
H       -0.7247369141    1.0409033692    1.9968762779
H        2.5734464146    2.1627974905   -0.2839236295
H        2.7316594308    0.4932181906    0.3574825533
H       -5.7957061276    1.5475216551   -0.1724950911
H        1.9160997050    1.6065360268    2.3519955416
H       -1.2706018500    2.4455880192    0.0556186469
H       -1.1114164760    1.6940902802   -1.5574963439
H       -3.6873282690    2.3230656458   -0.4499143812
H       -0.4947397233   -0.3343823329   -0.2625529507
H        1.3693322203    3.7012401950    1.5373131334
28   
torsion grid (45,)
C       -2.5738882141    0.6628431833   -0.3585811781
C       -5.4416611042   -0.4443852467    0.5618019332
C       -5.3986495647   -0.6106920442   -0.9460524447
C        0.1445477821    0.6493436610    1.4045294741
C        2.0350667115    1.3554938817    0.1918105197
C       -5.0743196991    0.7238303435   -0.3216629236
C        1.2743584791    1.6677710801    1.4812531316
C       -1.3118710789    1.5365025080   -0.4921133163
N       -3.7409485258    1.3145336552   -0.3299655500
N       -0.1840066322    0.6439670300   -0.0702663514
O       -2.4128867250   -0.5662688662   -0.3046515167
O        1.0122716806    0.9787732761   -0.7820849385
O        0.6671539561    2.9520434984    1.4735142324
H       -6.4008972689   -0.3982476456    1.0675335509
H       -4.6450903788   -0.9237794976    1.1191548301
H       -4.5837449285   -1.2014691814   -1.3446781716
H       -6.3311693447   -0.6707145991   -1.4982641046
H        0.4720934152   -0.3544442029    1.6750151933
H       -0.7396154246    0.9316429228    1.9732948237
H        2.5513015390    2.2188679806   -0.2288578828
H        2.7260613233    0.5165116613    0.3145357691
H       -5.8142036334    1.5086135090   -0.4305692182
H        1.8943879292    1.5026159045    2.3683313691
H       -1.2936411780    2.4428691120    0.1116419397
H       -1.1263191434    1.7824198788   -1.5399338783
H       -3.7113145279    2.3269467055   -0.3633962091
H       -0.4894566614   -0.3077169556   -0.3617405406
H        1.3269713094    3.6355402143    1.6760901110
28   
torsion grid (60,)
C       -2.5564794269    0.7012299628   -0.4387407144
C       -5.5361891089   -0.2418405683    0.6190878111
C       -5.3567353746   -0.6679078167   -0.8252717945
C        0.1602198837    0.6006541452    1.3343243485
C        2.0406865152    1.4249898305    0.1822461655
C       -5.0675540785    0.7543764789   -0.4170035116
C        1.2736783223    1.6280804821    1.4896820250
C       -1.3078806012    1.6039122868   -0.4947096290
N       -3.7321252313    1.3371945633   -0.3784699913
N       -0.1666426187    0.7004273226   -0.1373167607
O       -2.3710830747   -0.5245384911   -0.4709486303
O        1.0252646004    1.1055988922   -0.8194026477
O        0.6461606601    2.8996235479    1.5767843187
H       -6.5356050430   -0.1146121690    1.0226551164
H       -4.7964784907   -0.6069378494    1.3244173256
H       -4.5239542220   -1.3215664945   -1.0453447059
H       -6.2397726085   -0.8139196574   -1.4393692052
H        0.5033036521   -0.4152811086    1.5298363939
H       -0.7288357620    0.8257666122    1.9206614666
H        2.5435191414    2.3254294169   -0.1716637431
H        2.7449458694    0.5903265851    0.2437769442
H       -5.7801249703    1.5070967496   -0.7361768046
H        1.8952391108    1.4067884840    2.3633636969
H       -1.3078418337    2.4608784572    0.1775697524
H       -1.1223418105    1.9340224874   -1.5190701089
H       -3.7066415015    2.3472335500   -0.2962142147
H       -0.4572962551   -0.2314800882   -0.4997838616
H        1.2951237738    3.5765287054    1.8301842764
28   
torsion grid (75,)
C       -2.4809018402    0.6514851247   -0.5792107786
C       -5.5817481764   -0.0957541506    0.5894279258
C       -5.2410766465   -0.8236344091   -0.6919987203
C        0.2298067558    0.4750867696    1.2221112572
C        2.0872001549    1.4629569989    0.1655099678
C       -5.0026235531    0.6610704132   -0.5892843600
C        1.3076005871    1.5196662429    1.4800452688
C       -1.2613881445    1.5962229715   -0.5179668616
N       -3.6759007083    1.2551463406   -0.5200254244
N       -0.0938895524    0.6998738403   -0.2362941562
O       -2.2493592350   -0.5592202998   -0.7043628083
O        1.0882759323    1.2019488647   -0.8692643757
O        0.6377560189    2.7565681831    1.6790092324
H       -6.6207811582    0.0869987708    0.8443142417
H       -4.9237952255   -0.2614095046    1.4373110445
H       -4.3843859129   -1.4830435180   -0.6826884506
H       -6.0520165758   -1.1275357959   -1.3461074051
H        0.6061348494   -0.5426790140    1.3252294009
H       -0.6687610673    0.6150338321    1.8202630398
H        2.5604517273    2.4085154355   -0.1006839285
H        2.8194778813    0.6505099464    0.1562035822
H       -5.6739875690    1.3062388660   -1.1468920029
H        1.9320405970    1.2392306798    2.3345093675
H       -1.3022548918    2.3763778261    0.2409717176
H       -1.0733047840    2.0406760852   -1.4975255637
H       -3.6704295822    2.2528899159   -0.3357581618
H       -0.3541181451   -0.2038500844   -0.6839935391
H        1.2631433512    3.4286187112    1.9965229886
28   
torsion grid (90,)
C       -2.4465567998    0.6512308286   -0.6357802140
C       -5.6444007473    0.0695793789    0.5943849880
C       -5.1424018504   -0.8898780189   -0.4558762240
C        0.2631252770    0.3884594283    1.1617012706
C        2.0970021467    1.5132280243    0.2057534607
C       -4.9617104446    0.5932525118   -0.6566060996
C        1.3120660437    1.4341562434    1.5159234625
C       -1.2518478467    1.6178827504   -0.4818880409
N       -3.6571089905    1.2249826204   -0.5552780778
N       -0.0618763314    0.7315113878   -0.2732960048
O       -2.1843467242   -0.5391744426   -0.8506148690
O        1.1084312021    1.3185162218   -0.8532465467
O        0.6090763709    2.6309089689    1.8188050984
H       -6.7109728890    0.2445838389    0.6938124858
H       -5.0829790174    0.1309076468    1.5220409045
H       -4.2675672178   -1.4843690276   -0.2295875124
H       -5.8652760289   -1.3730068957   -1.1050066741
H        0.6658285207   -0.6242954228    1.1774250147
H       -0.6406621596    0.4519979741    1.7648983662
H        2.5461839614    2.4903916651    0.0260453086
H        2.8503044858    0.7238818113    0.1292234397
H       -5.5811605357    1.0765371042   -1.4060833606
H        1.9410752924    1.0962465370    2.3459040134
H       -1.3177251495    2.3251835558    0.3437068692
H       -1.0712691186    2.1540197053   -1.4159191986
H       -3.6767716811    2.2115054216   -0.3161716093
H       -0.2957404847   -0.1365609051   -0.7988789647
H        1.2154686598    3.2887019442    2.1971947659
28   
torsion grid (105,)
C       -2.4567016826    0.6737891028   -0.6943527757
C       -5.7499676744    0.1937935584    0.5273125121
C       -5.0927669066   -0.9019846992   -0.2720353830
C        0.2678880307    0.3363706421    1.0640616562
C        2.0773621790    1.5510313965    0.1737368954
C       -4.9500540306    0.5310557106   -0.7174981561
C        1.3027222347    1.3732542648    1.4803567742
C       -1.2771756280    1.6471396884   -0.4856633022
N       -3.6791925345    1.2150436722   -0.5654332160
N       -0.0722695465    0.7679435084   -0.3432570686
O       -2.1813225029   -0.4953644752   -0.9885260968
O        1.0848522351    1.4103464070   -0.8901284679
O        0.5831138521    2.5359990676    1.8654864502
H       -6.8269325496    0.3174351257    0.4752977949
H       -5.3070673519    0.4513666181    1.4848973475
H       -4.2222385276   -1.3913039386    0.1459640825
H       -5.7128124279   -1.5395930458   -0.8931497205
H        0.6864644686   -0.6686266827    1.0106125195
H       -0.6325766440    0.3456914108    1.6754632054
H        2.5097694889    2.5450780287    0.0562517121
H        2.8425190825    0.7807682768    0.0410285538
H       -5.4924829608    0.8448665705   -1.6046760165
H        1.9425786690    0.9916308060    2.2826310140
H       -1.3486055396    2.2981846541    0.3844922238
H       -1.1121370672    2.2456073103   -1.3840789921
H       -3.7280032637    2.1918649671   -0.2928879390
H       -0.2958063567   -0.0671897151   -0.9236779961
H        1.1815788600    3.1769955348    2.2832756788
28   
torsion grid (120,)
C       -2.4347245032    0.6882646766   -0.6670762729
C       -5.8450372126    0.2701022245    0.4497979675
C       -5.0659282132   -0.9009571058   -0.0946589708
C        0.3126371606    0.2944131071    1.0383118508
C        2.0952327739    1.5824396832    0.1983335866
C       -4.8986665578    0.4618973928   -0.7168608680
C        1.3378720424    1.3211221391    1.5010029141
C       -1.2684458868    1.6662764826   -0.4192796986
N       -3.6672283405    1.1908490499   -0.4842684916
N       -0.0490716452    0.7989098157   -0.3392534197
O       -2.1509424657   -0.4587646584   -1.0296706939
O        1.0922091901    1.4889001392   -0.8608265869
O        0.6068420736    2.4502382698    1.9578636300
H       -6.9077770106    0.3409370128    0.2424458412
H       -5.5406113423    0.6732639685    1.4112618835
H       -4.2430638840   -1.2859040992    0.4962083065
H       -5.5835834423   -1.6473430776   -0.6873480676
H        0.7440086644   -0.7000793516    0.9244656076
H       -0.5810676085    0.2570622926    1.6584990910
H        2.5136319746    2.5871665244    0.1323175759
H        2.8684725100    0.8310568127    0.0141288992
H       -5.3224737749    0.6301798311   -1.7029602587
H        1.9918419346    0.9044987460    2.2739531745
H       -1.3398261880    2.2665416825    0.4866652517
H       -1.1228369457    2.3165218139   -1.2844923920
H       -3.7490590238    2.1605127096   -0.1952637714
H       -0.2659258204   -0.0058648763   -0.9631740527
H        1.2010812998    3.0753710732    2.4047067936
28   
torsion grid (135,)
C       -2.4150601352    0.6855101187   -0.6388572102
C       -5.9403905221    0.3254574523    0.3372685183
C       -5.1063764237   -0.9010291268    0.0518927842
C        0.3585832154    0.2592316810    1.0039837018
C        2.1067105218    1.6234378570    0.2132797048
C       -4.8508646203    0.3762843624   -0.7077573901
C        1.3702526923    1.2795734358    1.5087087768
C       -1.2660129099    1.6739673166   -0.3617588502
N       -3.6570264653    1.1385863972   -0.4002194552
N       -0.0288208377    0.8283399216   -0.3412727070
O       -2.1181050248   -0.4345942776   -1.0683522568
O        1.0921424608    1.5683955899   -0.8375333808
O        0.6241768713    2.3690062712    2.0326025502
H       -6.9662494202    0.3591504246   -0.0141312964
H       -5.7637104700    0.8457082586    1.2743645223
H       -4.3693410344   -1.1958440488    0.7909011102
H       -5.5489138735   -1.7218188274   -0.5019312363
H        0.8065478379   -0.7196425198    0.8332308103
H       -0.5269086917    0.1725503689    1.6309818443
H        2.5066136877    2.6376651172    0.1959747263
H        2.8905804279    0.8969980347   -0.0196784494
H       -5.1369126105    0.4144672605   -1.7551511284
H        2.0411574882    0.8353794391    2.2511940088
H       -1.3357589003    2.2278811015    0.5734092818
H       -1.1460030064    2.3681575344   -1.1962607441
H       -3.7729710232    2.0992503349   -0.0938169546
H       -0.2362185897    0.0534213338   -1.0045834236
H        1.2120890801    2.9807022121    2.5056402556
28   
torsion grid (150,)
C       -2.3496943193    0.6988615084   -0.5855704409
C       -5.9794812766    0.4157791649    0.2204487860
C       -5.1589260015   -0.8546922059    0.2033779895
C        0.4483629447    0.2420038936    0.9894343872
C        2.1589967016    1.6884296663    0.2668787627
C       -4.7634144402    0.3148013579   -0.6643617049
C        1.4431883671    1.2519241964    1.5458494233
C       -1.2206868921    1.6984912195   -0.2742631767
N       -3.5991388759    1.0976819461   -0.2981672067
N        0.0357661457    0.8821865392   -0.3160723516
O       -2.0360881875   -0.3873679315   -1.0855434834
O        1.1338987444    1.6776320593   -0.7751578712
O        0.6796203128    2.2911857510    2.1413589923
H       -6.9488896242    0.4244085318   -0.2662814010
H       -5.9116651585    1.0418216398    1.1059458473
H       -4.5388191962   -1.0629997563    1.0691048262
H       -5.5547570853   -1.7307936041   -0.2988759972
H        0.9157268492   -0.7146936757    0.7563836798
H       -0.4290571366    0.0978889415    1.6171492102
H        2.5396421616    2.7094068465    0.3066418157
H        2.9538549355    0.9927482483   -0.0172477480
H       -4.9055078772    0.2244971504   -1.7372814490
H        2.1310555522    0.7784539256    2.2539683262
H       -1.2885141176    2.1998303224    0.6903175349
H       -1.1291813889    2.4386089709   -1.0721257613
H       -3.7453782417    2.0423721722    0.0424091560
H       -0.1597768619    0.1437828723   -1.0228553571
H        1.2601733706    2.8898644353    2.6395039974
28   
torsion grid (165,)
C       -2.3335751898    0.6624099459   -0.5830357879
C       -6.0373747187    0.4486395880    0.0618632555
C       -5.2777652645   -0.8365364004    0.3142035622
C        0.4995463722    0.2090652634    0.9150455812
C        2.1579078137    1.7388551056    0.2426975603
C       -4.7291173433    0.1986202525   -0.6390560485
C        1.4746727760    1.2176047471    1.5076703830
C       -1.2283491823    1.6800857429   -0.2488227071
N       -3.5866272058    0.9997124744   -0.2423745717
N        0.0490841550    0.9022699786   -0.3502872408
O       -2.0009159956   -0.3837916620   -1.1529161986
O        1.1179054692    1.7502565832   -0.7843398632
O        0.6922408612    2.2038960544    2.1658134249
H       -6.9389759072    0.4200723055   -0.5406161119
H       -6.0552352645    1.1825995105    0.8634147132
H       -4.7806965106   -0.9433081158    1.2731468273
H       -5.6489460673   -1.7600983744   -0.1173344418
H        0.9886731393   -0.7213946414    0.6270073608
H       -0.3636871719    0.0093062586    1.5472569712
H        2.5091821604    2.7673911589    0.3297411735
H        2.9681074453    1.0824197556   -0.0876580674
H       -4.7395264919   -0.0287344972   -1.7002403248
H        2.1862110155    0.7288870181    2.1811172986
H       -1.2903036415    2.1370919878    0.7379297517
H       -1.1729305803    2.4558308792   -1.0156209014
H       -3.7577084041    1.9197468155    0.1494781685
H       -0.1371218647    0.1959612428   -1.0913645862
H        1.2630285198    2.7875175145    2.6922588219
28   
torsion grid (180,)
C       -2.2945740409    0.5862459462   -0.5931629274
C       -6.0483521083    0.4375956649   -0.1473500241
C       -5.3911355499   -0.8180990938    0.3891286946
C        0.5743448142    0.1484168030    0.8252099178
C        2.1713585035    1.7680149713    0.2175339721
C       -4.6764934531    0.0461344948   -0.6241422578
C        1.5257519449    1.1536798595    1.4602584650
C       -1.2184673006    1.6240817757   -0.2292207873
N       -3.5499709257    0.8632262097   -0.2140517691
N        0.0819265490    0.8962229224   -0.3926888930
O       -1.9375002347   -0.4173069577   -1.2241053081
O        1.1151975159    1.8028040760   -0.7923808326
O        0.7227144146    2.0748249172    2.1848158716
H       -6.8672153234    0.3474844166   -0.8531602114
H       -6.1334887998    1.2835095035    0.5304153586
H       -5.0284458347   -0.7930507921    1.4121364759
H       -5.7508466166   -1.7852003558    0.0532894416
H        1.0885037695   -0.7477826769    0.4782042743
H       -0.2720234288   -0.1151498395    1.4568173526
H        2.4903844365    2.8011500508    0.3579586011
H        2.9970658902    1.1586965071   -0.1611497804
H       -4.5603044260   -0.3360973274   -1.6321273807
H        2.2634507161    0.6515306498    2.0945431925
H       -1.2749120778    2.0288546684    0.7804787428
H       -1.2039472230    2.4383081865   -0.9569628934
H       -3.7404041188    1.7478881871    0.2440893810
H       -0.0925185654    0.2266075832   -1.1694538543
H        1.2831561137    2.6476352868    2.7337741605
