15   
torsion grid (-165,)
C        0.2786839121   -0.6582956282    0.0626191458
C       -1.3526904110    0.7717326299    2.9861003351
C       -0.5471525580   -0.3287737357    2.3315179366
N        0.4191331720   -0.1243480479   -1.1499872314
N        0.5732004681   -1.9380656475    0.3050841492
O       -0.1683804146    0.1523912844    0.9815377831
H       -0.7665384427    1.6893175781    3.0727413986
H       -2.2652192075    0.9764346114    2.4217258953
H       -1.6334627693    0.4458578292    3.9916924164
H       -1.1392196864   -1.2401565899    2.2078921699
H        0.3817581991   -0.5401687759    2.8688455423
H        0.8409508161   -0.6238985370   -1.9236711451
H        0.1493880518    0.8438994915   -1.2890568861
H        0.9007521804   -2.5535944198   -0.4309650457
H        0.5632093921   -2.3114540964    1.2459193898
15   
torsion grid (-150,)
C        0.3016439681   -0.6796756789    0.0853347611
C       -1.3757485448    0.7436384837    2.9393508100
C       -0.4549977278   -0.3207477554    2.3837023750
N        0.4011924773   -0.1323208913   -1.1256063296
N        0.4919573444   -1.9877558643    0.2809376811
O        0.0008314089    0.1445144520    1.0491951266
H       -0.8605401898    1.7027852128    3.0272589662
H       -2.2604148376    0.8637183796    2.3098277467
H       -1.7004430234    0.4351753375    3.9374179804
H       -0.9807403883   -1.2701220648    2.2527552785
H        0.4453991316   -0.4596062385    2.9869055080
H        0.7773886790   -0.6326802648   -1.9221375874
H        0.1983427669    0.8565742363   -1.2290817357
H        0.6949418522   -2.6119575953   -0.4919053369
H        0.5847983595   -2.3691816908    1.2142573070
15   
torsion grid (-135,)
C        0.3178646302   -0.6718649623    0.1108590559
C       -1.4036537101    0.7212403337    2.8786532841
C       -0.3648345673   -0.2883660747    2.4403202733
N        0.4035008956   -0.0957825657   -1.0878895401
N        0.3984086972   -1.9985059935    0.2554111121
O        0.1488528754    0.1427984105    1.1130708400
H       -0.9769045799    1.7251033270    2.9365668213
H       -2.2574805891    0.7290595819    2.1969281269
H       -1.7596431521    0.4420955062    3.8749601106
H       -0.8000335309   -1.2852393816    2.3411643662
H        0.5069847646   -0.3182756419    3.0960027895
H        0.7159029479   -0.5945451353   -1.9126281769
H        0.2687210410    0.9078400777   -1.1539501001
H        0.4873794180   -2.6090003308   -0.5492731421
H        0.5486669943   -2.4164552413    1.1654269084
15   
torsion grid (-120,)
C        0.3220628655   -0.6681036508    0.1334568648
C       -1.4259234034    0.6677116648    2.8129144570
C       -0.2661555811   -0.2510876977    2.4927197986
N        0.4278096554   -0.0681714526   -1.0522085103
N        0.2694205213   -2.0002553791    0.2359172328
O        0.2731275130    0.1309047264    1.1605938492
H       -1.1127170217    1.7140576172    2.7980380606
H       -2.2505651115    0.5262731743    2.1096195905
H       -1.7875595470    0.4323281290    3.8186152410
H       -0.5793590064   -1.2963126273    2.4721237347
H        0.5770126940   -0.1305696422    3.1731855014
H        0.6701893160   -0.5699958255   -1.8984229387
H        0.3957200120    0.9455306330   -1.0863441967
H        0.2689106848   -2.5877958450   -0.5904021988
H        0.4163725216   -2.4632926128    1.1241494253
15   
torsion grid (-105,)
C        0.2671324123   -0.5741252003    0.0721599004
C       -1.4635548676    0.3358810156    2.8246297955
C       -0.0435391192   -0.0304032088    2.4431334568
N        0.8195280561   -0.1594213825   -1.0672249117
N       -0.1864429304   -1.8237566081    0.2130756427
O        0.2081289561    0.3164330778    1.0214144540
H       -1.6543117779    1.3940078611    2.6327778445
H       -2.2066523888   -0.2584933809    2.2838892340
H       -1.5961482298    0.1514983836    3.8949780752
H        0.2049689322   -1.0822780550    2.5999523602
H        0.6900570678    0.5769742756    2.9725739899
H        0.7709679845   -0.6961738966   -1.9251549097
H        1.2092401806    0.7768304580   -1.1051610599
H       -0.0826122152   -2.5074787725   -0.5282736754
H       -0.7705148857   -2.0845137529    0.9976521158
15   
torsion grid (-90,)
C        0.2924945946   -0.5507376508    0.0946356938
C       -1.4522398867    0.2561270438    2.7339006878
C        0.0144966233   -0.0243194414    2.4669122424
N        0.8057730413   -0.1448698001   -1.0661231825
N       -0.2496808200   -1.7642396306    0.2318159346
O        0.3736469685    0.3114456978    1.0689693452
H       -1.6923850323    1.2978277229    2.5098763791
H       -2.1213890503   -0.3879652631    2.1548986798
H       -1.6523441525    0.0795419419    3.7950318612
H        0.3174746533   -1.0560097496    2.6639075082
H        0.6641731872    0.6356600410    3.0398438747
H        0.7117483818   -0.6783279892   -1.9220631091
H        1.2534128719    0.7647809709   -1.1092339411
H       -0.2591718385   -2.4265613209   -0.5356102913
H       -0.7547311996   -2.0257811906    1.0686108431
15   
torsion grid (-75,)
C        0.3021631099   -0.5622821296    0.1331977880
C       -1.4342240354    0.2614612570    2.6372647353
C        0.0479484977   -0.0380670968    2.5099675365
N        0.6967620592   -0.1029856385   -1.0538228288
N       -0.2938635140   -1.7506179363    0.2591054703
O        0.5486007156    0.2274790818    1.1416286612
H       -1.6448827685    1.2942206731    2.3501111018
H       -2.0602976494   -0.4049389047    2.0377240330
H       -1.7205981396    0.1357605695    3.6859236701
H        0.3216656956   -1.0620038215    2.7820370938
H        0.6536763089    0.6395972317    3.1090473184
H        0.6219488811   -0.6465482023   -1.9052614269
H        1.1464353558    0.8055592260   -1.0980619293
H       -0.4555624797   -2.3486469339   -0.5432766121
H       -0.5578869372   -2.1167816356    1.1643724176
15   
torsion grid (-60,)
C        0.3125597053   -0.5826441113    0.1640032766
C       -1.4099896977    0.2409051105    2.5595311210
C        0.0807036475   -0.0415120495    2.5455422164
N        0.6344225153   -0.0669592201   -1.0214773098
N       -0.3353246064   -1.7457283447    0.2692005645
O        0.6865502578    0.1180552581    1.1988834599
H       -1.6207613361    1.2414416208    2.1735951276
H       -1.9958780639   -0.4876918962    1.9950386693
H       -1.7477922261    0.2048276920    3.5998587695
H        0.3404462405   -1.0404255714    2.9098775185
H        0.6423485644    0.6862756371    3.1280215244
H        0.5548881367   -0.5905448506   -1.8853517959
H        1.1001018086    0.8344177932   -1.0458403468
H       -0.6193694753   -2.2702303691   -0.5507072982
H       -0.4497514702   -2.1989029063    1.1670893972
15   
torsion grid (-45,)
C        0.3171358205   -0.6011943725    0.1859371452
C       -1.3964218908    0.1883206875    2.5283399048
C        0.1039616692   -0.0291571567    2.5789822277
N        0.6332348455   -0.0411548054   -0.9808248607
N       -0.3972056371   -1.7279259549    0.2514418999
O        0.7724041523    0.0065129546    1.2460951279
H       -1.6453061978    1.1127365627    1.9999546484
H       -1.9487609916   -0.6384334706    2.0792643444
H       -1.7439512512    0.2939937814    3.5608308418
H        0.3852424663   -0.9762506318    3.0484732143
H        0.6181071504    0.7776666666    3.0975646100
H        0.5330968842   -0.5277839254   -1.8643213989
H        1.1432722812    0.8362358960   -0.9710377614
H       -0.7564242386   -2.1794648169   -0.5825476402
H       -0.4661362879   -2.2428487701    1.1206435810
15   
torsion grid (-30,)
C        0.3207536680   -0.6082147275    0.1909455190
C       -1.3865488815    0.1128194297    2.5387529641
C        0.1247773205    0.0047451239    2.5982814221
N        0.6875584441   -0.0327559362   -0.9540238421
N       -0.4784006260   -1.6783475978    0.2088697935
O        0.8186065699   -0.0825568051    1.2743963324
H       -1.7092049429    0.9136411210    1.8671724725
H       -1.8918424921   -0.8126807091    2.2605075403
H       -1.7235986577    0.3759055907    3.5464545190
H        0.4670948401   -0.8601574565    3.1712268574
H        0.5795476187    0.9021323369    3.0135582562
H        0.5720967946   -0.4859512999   -1.8534599393
H        1.2587622386    0.8048791495   -0.9093374000
H       -0.8779511284   -2.0588125634   -0.6421842478
H       -0.5748247261   -2.2302869320    1.0520687905
15   
torsion grid (-15,)
C        0.3188789295   -0.5886869458    0.1736049199
C       -1.3817009676   -0.0117628823    2.6114336145
C        0.1320597544    0.0724967404    2.5968218943
N        0.8160671428   -0.0725078521   -0.9523173365
N       -0.5976330112   -1.5592383077    0.1394047571
O        0.8158406154   -0.1079243650    1.2758486775
H       -1.8430246064    0.6121972859    1.8414201501
H       -1.7749481603   -1.0280780197    2.5415840849
H       -1.7014324944    0.3798363453    3.5825043848
H        0.6004470157   -0.6654555229    3.2497155033
H        0.4778592160    1.0657636577    2.8787423623
H        0.7033767251   -0.5228717092   -1.8533527884
H        1.4844893839    0.6872153383   -0.8777751504
H       -0.9956126567   -1.8816142007   -0.7358163009
H       -0.8410624763   -2.0707676399    0.9770768490
15   
torsion grid (0,)
C        0.3004646525   -0.5403455099    0.1286446025
C       -1.3616568727   -0.1736560833    2.7134509814
C        0.1034683910    0.1829736871    2.5582770728
N        0.9744319385   -0.1797920914   -0.9675912080
N       -0.7483072669   -1.3620546225    0.0408604993
O        0.7687460880   -0.0547803802    1.2395346917
H       -2.0007019845    0.2992257133    1.9639455127
H       -1.5471537715   -1.2517429766    2.7542312546
H       -1.6655160972    0.2198459648    3.6890087691
H        0.7354399596   -0.3694771203    3.2533626066
H        0.2650402330    1.2512382653    2.6998636969
H        0.8583847814   -0.6529681251   -1.8560431903
H        1.7594140362    0.4541295455   -0.8623540906
H       -1.1029350261   -1.6645589983   -0.8593213760
H       -1.2057416782   -1.7192369620    0.8679012738
15   
torsion grid (15,)
C        0.1007931010   -0.6741851617    0.1000217952
C       -0.5734326979    0.3060610974    2.8844032083
C       -1.4909319536   -0.5652375125    2.0490435933
N        0.0933641212   -0.3566236720   -1.1963002205
N        1.2491083773   -0.8329669782    0.7628080005
O       -1.0704176919   -0.8490846590    0.6392008508
H        0.3203247093   -0.2044402124    3.2491099040
H       -0.2841078002    1.2249912831    2.3677580881
H       -1.1486111296    0.5973256002    3.7692146153
H       -2.4559885602   -0.0871954076    1.8884916035
H       -1.6512377304   -1.5503112645    2.4896822467
H        0.9169779081   -0.4389875928   -1.7813367057
H       -0.8026978060   -0.2120096861   -1.6498218112
H        2.1441720961   -0.6470483591    0.3239227611
H        1.2608023700   -1.2439740765    1.6866857640
15   
torsion grid (30,)
C        0.1025996950   -0.6938222306    0.1173580348
C       -0.6091790390    0.4185991295    2.8011735156
C       -1.4454836234   -0.6123365960    2.0683045923
N        0.1437415370   -0.2464044550   -1.1375438515
N        1.2172179661   -1.0116421684    0.7812626375
O       -1.0869412437   -0.8314653021    0.6312510978
H        0.4039425435    0.0899874027    3.0354629950
H       -0.5620284410    1.3647776248    2.2543960069
H       -1.1141630417    0.6156933568    3.7521857197
H       -2.4849733701   -0.3023414549    1.9792054167
H       -1.4117571800   -1.5985371293    2.5371064153
H        0.9698966445   -0.3294503219   -1.7191569016
H       -0.7286375473    0.0237540239   -1.5801180811
H        2.1363872279   -0.8737219471    0.3753157156
H        1.1661748457   -1.5457296556    1.6397871827
15   
torsion grid (45,)
C        0.1029978253   -0.6852188780    0.1137043949
C       -0.6447385431    0.4840018595    2.7820890394
C       -1.4021943927   -0.6210400895    2.0706434947
N        0.1945347889   -0.2134758308   -1.1288638740
N        1.1784644985   -1.1083684443    0.7833422426
O       -1.1004410987   -0.7295383643    0.6139869976
H        0.4252297417    0.2949743774    2.8806089652
H       -0.7929502119    1.4479825496    2.2876666895
H       -1.0593041295    0.5633421328    3.7919510838
H       -2.4747748879   -0.4379558633    2.0536431039
H       -1.2272645372   -1.6099329003    2.5042528627
H        1.0241026414   -0.3346567523   -1.6985427527
H       -0.6486310816    0.1319632271   -1.5758445454
H        2.1093507943   -1.0527789545    0.3848143900
H        1.0747775482   -1.6369376449    1.6408222465
15   
torsion grid (60,)
C        0.1058128283   -0.6637641373    0.0942643532
C       -0.6861058700    0.5256592836    2.8038945794
C       -1.3633264924   -0.6089737967    2.0581723438
N        0.2314796126   -0.2252243494   -1.1574469353
N        1.1443590673   -1.1639039361    0.7687030007
O       -1.0949360670   -0.5820840153    0.5976091066
H        0.4037981471    0.4558136437    2.8050458901
H       -0.9792923161    1.4937917776    2.3901244734
H       -1.0225917899    0.4901165797    3.8446672031
H       -2.4483198691   -0.5284767201    2.0848480764
H       -1.0878923679   -1.6017128824    2.4278204149
H        1.0616272224   -0.3912304316   -1.7142625538
H       -0.5827961246    0.1729961404   -1.6138533096
H        2.0696199248   -1.2130382973    0.3569859711
H        1.0133710953   -1.6235726770    1.6610099774
15   
torsion grid (75,)
C        0.1155842838   -0.6354765882    0.0702675967
C       -0.7262417308    0.5399692506    2.8762604755
C       -1.3276377348   -0.5786245253    2.0457016157
N        0.2350758213   -0.2843415814   -1.2096173356
N        1.1288521797   -1.1911943392    0.7393771999
O       -1.0527280430   -0.4018434566    0.6011632427
H        0.3669403748    0.5494089375    2.8570328487
H       -1.0920413905    1.5117359333    2.5367215073
H       -1.0412735543    0.4030247413    3.9152490512
H       -2.4158227341   -0.5668352854    2.0730217609
H       -0.9956510363   -1.5796498406    2.3374589304
H        1.0682579574   -0.4709863922   -1.7545727002
H       -0.5638349806    0.1333810215   -1.6753064631
H        2.0197955535   -1.3754330785    0.2922994220
H        1.0262880072   -1.4938824529    1.6991444754
15   
torsion grid (90,)
C        0.1344990726   -0.6127034341    0.0413410565
C       -0.7639600104    0.5268846008    2.9662280096
C       -1.2939448135   -0.5384974665    2.0253097187
N        0.2046748170   -0.3810428588   -1.2689855209
N        1.1263107202   -1.2232129038    0.6962829371
O       -0.9652253858   -0.2147170979    0.6170903985
H        0.3293080535    0.5755914544    2.9821134024
H       -1.1518841363    1.5104817299    2.6922801853
H       -1.1038489826    0.2953939187    3.9801860497
H       -2.3825994019   -0.5618548312    2.0115133270
H       -0.9340683979   -1.5478170811    2.2415243173
H        1.0450843678   -0.5471101194   -1.8095274207
H       -0.5943260869    0.0386226036   -1.7328638826
H        1.9507582771   -1.5576937340    0.2103688959
H        1.1343509124   -1.2830128572    1.7062654991
15   
torsion grid (105,)
C        0.1755935467   -0.6099692000    0.0413074661
C       -0.8551717765    0.5752487675    3.0299955492
C       -1.2440631914   -0.5021525948    2.0379667823
N        0.2063583190   -0.4003436618   -1.2741516956
N        1.1367054435   -1.3035149184    0.6597149926
O       -0.8475479494   -0.0984047266    0.6651266963
H        0.2295597818    0.6993794681    3.1062222343
H       -1.2988748583    1.5339428650    2.7527307320
H       -1.2340825262    0.2940906520    4.0172156415
H       -2.3253588238   -0.6082366562    1.9548217147
H       -0.8188423195   -1.4845553994    2.2544526083
H        1.0236302477   -0.5967258996   -1.8398432578
H       -0.5784427171    0.0743073305   -1.7085204371
H        1.8951844412   -1.7298811823    0.1393530293
H        1.2176475310   -1.3027961011    1.6687441921
15   
torsion grid (120,)
C        0.1696135158   -0.7280356415    0.0820026532
C       -1.0762687849    0.8052263674    2.9309040898
C       -1.0052290996   -0.5415726598    2.2432527586
N        0.3677975494   -0.0917921259   -1.0724758289
N        0.9711258654   -1.7244071960    0.4727957678
O       -0.8440430977   -0.3082465442    0.7834986526
H       -0.1387289501    1.3565055318    2.8224017717
H       -1.8975177364    1.4056042220    2.5330901392
H       -1.2570518269    0.6409623340    3.9976538251
H       -1.9283368504   -1.1153825547    2.3275437410
H       -0.1657982205   -1.1336837242    2.6117306007
H        0.9894083416   -0.4445574303   -1.7906757245
H       -0.2238318709    0.7019476845   -1.2954974432
H        1.7753533875   -1.9956163704   -0.0818856641
H        0.7006531023   -2.3515182033    1.2201450541
15   
torsion grid (135,)
C        0.1863917956   -0.7235486286    0.0664844091
C       -1.1572745998    0.8181560529    2.9617841742
C       -0.8973293798   -0.4976430177    2.2605796583
N        0.4179173151   -0.0901438615   -1.0830359550
N        0.8852786540   -1.8071084248    0.4197752358
O       -0.7544525265   -0.2122776862    0.8081608451
H       -0.3068934008    1.4959020229    2.8552803666
H       -2.0564121048    1.3008008778    2.5721492369
H       -1.3091897521    0.6192563569    4.0269782070
H       -1.7305360192   -1.1978005324    2.3407629002
H        0.0242969997   -0.9611372420    2.6194172521
H        0.9858216181   -0.4884921867   -1.8215184375
H       -0.0912531435    0.7662987132   -1.2754932635
H        1.6406136718   -2.1556707436   -0.1599741062
H        0.5733639865   -2.4067181224    1.1738079157
15   
torsion grid (150,)
C        0.2141725889   -0.7140646228    0.0558127783
C       -1.2195549441    0.8051044078    2.9920396046
C       -0.7951264385   -0.4544050890    2.2688926370
N        0.4619707825   -0.1084595388   -1.1051023119
N        0.8110787382   -1.8623038387    0.3886839935
O       -0.6361559055   -0.1058729564    0.8341756613
H       -0.4487518077    1.5759539999    2.9212840091
H       -2.1579559904    1.1928222088    2.5892886220
H       -1.3722841642    0.5642663617    4.0481574680
H       -1.5493548424   -1.2437020759    2.3136136504
H        0.1661982071   -0.8191987140    2.6398974969
H        0.9790569865   -0.5534506064   -1.8540681870
H        0.0210982670    0.7868638150   -1.2889396920
H        1.4922108392   -2.2985573441   -0.2227559337
H        0.4972329459   -2.4035818050    1.1847428233
15   
torsion grid (165,)
C        0.2262841464   -0.6788954349    0.0449305174
C       -1.2751622192    0.8022787325    3.0122361575
C       -0.7092868291   -0.3924468273    2.2767788821
N        0.4597614279   -0.1084161037   -1.1362900280
N        0.7205483310   -1.8801399071    0.3548578957
O       -0.5074083147    0.0191504962    0.8670739779
H       -0.5755703872    1.6408970211    2.9916500867
H       -2.2282646724    1.1146149716    2.5797064163
H       -1.4459645089    0.5196082124    4.0549096442
H       -1.3999954021   -1.2404547749    2.2673924290
H        0.2628037813   -0.6890082476    2.6811755742
H        0.9378630700   -0.5858759355   -1.8909547911
H        0.0892153151    0.8201997691   -1.3094220350
H        1.3048792392   -2.3947583840   -0.2944953858
H        0.4569875529   -2.3531714340    1.2101161790
15   
torsion grid (180,)
C        0.2459421356   -0.6713641417    0.0498978568
C       -1.3197070082    0.7806654923    3.0138893887
C       -0.6309388147   -0.3607861023    2.2991405072
N        0.4335860724   -0.1311350258   -1.1534685388
N        0.6435569534   -1.9139596067    0.3327570593
O       -0.3486669921    0.0984080886    0.9196860399
H       -0.6761721473    1.6623307879    3.0539937502
H       -2.2598162960    1.0401288181    2.5220852506
H       -1.5404130649    0.4672095098    4.0381325635
H       -1.2734157937   -1.2434650743    2.2264895332
H        0.3266449189   -0.6143649806    2.7638112965
H        0.8858542626   -0.6250866787   -1.9133295919
H        0.1147480150    0.8184100278   -1.3154157477
H        1.1029893660   -2.4934340609   -0.3607263432
H        0.4951115480   -2.3208465929    1.2474833385
