19   
torsion grid (-165,)
C        2.6854540518    0.4159326114   -0.0319869532
C        0.7371168885    0.1370545439    1.6019429659
C       -0.7503684286    0.5783684667    1.5048656263
C        0.3012851433    0.9748350177   -0.6371712152
C        1.2389285705    0.0231174008    0.1423356215
C       -1.0652831838    0.7088999047    0.0070516619
O        3.2362894458    1.3591476093    0.5046744200
O        3.3387473332   -0.3913015965   -0.9142298454
O       -1.6128152158   -0.5502094489   -0.4215008023
H        1.3300305027    0.8877232534    2.1297475332
H        0.8554399617   -0.8115811863    2.1312506547
H       -1.4369534604   -0.1403122265    1.9578497552
H       -0.9025308289    1.5406727652    2.0021349804
H        0.5959399022    2.0150139645   -0.4550557045
H        0.3114966703    0.8016290945   -1.7186542114
H        1.0984720873   -0.9912564568   -0.2357952177
H       -1.7813107209    1.5153245446   -0.2005346031
H        4.2464409674   -0.0364446763   -0.9849807933
H       -1.7408677048   -0.5100655235   -1.3825077556
19   
torsion grid (-150,)
C        2.8215347772   -0.2396534518   -0.4279734647
C        0.8173197095   -0.7961415694    1.0786854249
C       -0.4112369696    0.1005701296    1.3923291756
C        0.6425424101    1.0138950020   -0.5680465532
C        1.3210874537   -0.3585888008   -0.3192704494
C       -0.7315373018    0.8413861910    0.0904800624
O        3.5954415964   -0.0084573896    0.4817770804
O        3.2481358678   -0.3756381340   -1.7162184285
O       -1.5840810045   -0.0154023516   -0.6878803581
H        1.6063151569   -0.6589399771    1.8208076186
H        0.5514589536   -1.8556360240    1.0695130368
H       -1.2819254568   -0.4666816230    1.7292484799
H       -0.1675885470    0.8310036224    2.1700834105
H        1.1925670988    1.8074625979   -0.0481496832
H        0.5903154587    1.2780696920   -1.6291355981
H        0.9750712690   -1.0538981126   -1.0870706775
H       -1.2295622321    1.8044627057    0.2670285053
H        4.2155405099   -0.2410682061   -1.6969539789
H       -1.7169753373    0.4001258394   -1.5544689020
19   
torsion grid (-135,)
C        2.8094045111   -0.2968362072   -0.4010001536
C        0.7874355235   -0.7933596143    1.1066412024
C       -0.4280017113    0.1274258992    1.3992342670
C        0.6382334311    0.9885552520   -0.5788337946
C        1.3064910253   -0.3811599798   -0.2917914968
C       -0.7385085818    0.8407061981    0.0795703608
O        3.6102593549   -0.3149702887    0.5140526197
O        3.2079054006   -0.1638499630   -1.6995584927
O       -1.5928737445   -0.0293167638   -0.6823902119
H        1.5746971338   -0.6654158029    1.8521874185
H        0.5027411036   -1.8478744768    1.1094997208
H       -1.3061670657   -0.4191750456    1.7506331732
H       -0.1743626795    0.8737372742    2.1587201791
H        1.1902187748    1.7943197949   -0.0795851570
H        0.5922705269    1.2252474738   -1.6462028033
H        0.9600473186   -1.0895604949   -1.0492195883
H       -1.2319452771    1.8102009386    0.2321227603
H        4.1816758926   -0.0913707462   -1.6776626893
H       -1.7193794210    0.3666235178   -1.5590406095
19   
torsion grid (-120,)
C        2.8079209408   -0.3333108907   -0.4014608251
C        0.7808606497   -0.7815023319    1.1136252637
C       -0.4327140669    0.1457605151    1.3909688985
C        0.6318274491    0.9749860143   -0.6024568408
C        1.3036295397   -0.3846042577   -0.2884965377
C       -0.7438385639    0.8365258898    0.0592347121
O        3.6153573807   -0.5908110787    0.4704432185
O        3.2016873931    0.0444549751   -1.6531291312
O       -1.5965309427   -0.0484111294   -0.6880593702
H        1.5665448829   -0.6516966144    1.8605666570
H        0.4936285744   -1.8350251563    1.1287407052
H       -1.3111456840   -0.3932907359    1.7532484148
H       -0.1775595874    0.9052335599    2.1369202302
H        1.1820474027    1.7929535583   -0.1214187837
H        0.5846348474    1.1919281707   -1.6736614433
H        0.9578629805   -1.1116045531   -1.0305697251
H       -1.2399014140    1.8070320332    0.1957165420
H        4.1782364478    0.0431530786   -1.6404840799
H       -1.7236536769    0.3328650060   -1.5710898705
19   
torsion grid (-105,)
C        2.8080307723   -0.3909258318   -0.4056730259
C        0.7856383977   -0.7733341038    1.1288082125
C       -0.4236187155    0.1619074184    1.3959047684
C        0.6340793979    0.9583335031   -0.6148495297
C        1.3040576916   -0.3941209708   -0.2820839057
C       -0.7389074265    0.8319610923    0.0543406046
O        3.5985077684   -0.8822657827    0.3766935290
O        3.2224806739    0.2138778120   -1.5574798069
O       -1.5951454008   -0.0648914349   -0.6754449835
H        1.5734501423   -0.6386277140    1.8728678578
H        0.4963131304   -1.8255814599    1.1598635828
H       -1.3016870430   -0.3684593020    1.7716673803
H       -0.1627261377    0.9332052990    2.1276719493
H        1.1879027408    1.7840863170   -0.1521787776
H        0.5809598656    1.1591340107   -1.6888682903
H        0.9476424390   -1.1371843167   -1.0047755477
H       -1.2348544276    1.8041872554    0.1777653750
H        4.1960673476    0.1361280818   -1.5660506991
H       -1.7251319024    0.3023978350   -1.5639671196
19   
torsion grid (-90,)
C        2.8032473150   -0.4246792078   -0.4370321075
C        0.8074192555   -0.7491702736    1.1395619086
C       -0.3980882878    0.1903398258    1.4072177114
C        0.6234453795    0.9475693005   -0.6369017628
C        1.3016677482   -0.3930287006   -0.2903950664
C       -0.7379979225    0.8313673217    0.0575238445
O        3.5674415349   -1.1144208061    0.2103668218
O        3.2467820840    0.3847576421   -1.4426975038
O       -1.6040051706   -0.0830221699   -0.6385902393
H        1.6054536919   -0.6005268519    1.8702315130
H        0.5220261738   -1.8010963248    1.1944722931
H       -1.2684046311   -0.3324668697    1.8107169051
H       -0.1249865548    0.9777389446    2.1170154756
H        1.1828214399    1.7846202578   -0.2031227598
H        0.5489674928    1.1276896443   -1.7135320997
H        0.9291881625   -1.1581719181   -0.9819535754
H       -1.2352988795    1.8041982783    0.1697798297
H        4.2140101952    0.2538696039   -1.4836233467
H       -1.7572448108    0.2701513235   -1.5291106654
19   
torsion grid (-75,)
C        2.5113463974   -0.6639533149   -0.3652033707
C        0.6102454957   -0.6481004061    1.3327331749
C       -0.7135158328    0.1524959442    1.4690906506
C        0.4224209082    0.8715266533   -0.5556120169
C        1.0301077111   -0.4792867935   -0.1497168903
C       -0.9606536548    0.8289592399    0.1074714597
O        3.1876544234   -1.5353855384    0.1472557994
O        3.0455965266    0.2399989116   -1.2359136817
O       -1.8631074006   -0.0220786064   -0.6242772703
H        1.3843738829   -0.2309192108    1.9838310956
H        0.5036179423   -1.7002359433    1.6012188533
H       -1.5673518645   -0.4856525347    1.7079621086
H       -0.6354870324    0.9060901164    2.2579004251
H        1.0104827651    1.6936954850   -0.1308739154
H        0.3770729019    1.0248882498   -1.6380866869
H        0.5447665967   -1.2728137033   -0.7308794148
H       -1.4012471330    1.8288776685    0.2136996361
H        3.9906054226    0.0050487423   -1.3171348174
H       -1.9763567589    0.3558074542   -1.5108981070
19   
torsion grid (-60,)
C        2.4787721832   -0.7035755445   -0.4159410046
C        0.6204675371   -0.6325370995    1.3145466304
C       -0.6914861177    0.1842084332    1.4694590019
C        0.3952047821    0.8490575628   -0.5976996825
C        1.0021102682   -0.4992400777   -0.1851957638
C       -0.9714257086    0.8295279826    0.0995541075
O        3.0961753072   -1.7041134379   -0.1034055275
O        3.0915340639    0.3572590898   -1.0156077519
O       -1.8978197110   -0.0326341506   -0.5876784678
H        1.4138118640   -0.2071542361    1.9373205851
H        0.5123982998   -1.6786408877    1.6052435705
H       -1.5431118316   -0.4395838333    1.7502624890
H       -0.5817905157    0.9567452698    2.2358083335
H        0.9994503509    1.6735950925   -0.2032831161
H        0.3231420240    0.9830441429   -1.6818668713
H        0.4985185078   -1.3009269759   -0.7357542647
H       -1.4038094261    1.8341564294    0.1945569017
H        4.0311704230    0.1042896735   -1.1050704452
H       -2.0296271241    0.3230976205   -1.4808448727
19   
torsion grid (-45,)
C        2.4655374375   -0.7149690657   -0.4622867618
C        0.6555343167   -0.6036476868    1.3012629437
C       -0.6630661720    0.2003127675    1.4682334684
C        0.3733073521    0.8272010513   -0.6361929343
C        0.9922658969   -0.5126203366   -0.2141640371
C       -0.9768360756    0.8195750524    0.0935389680
O        3.0399871799   -1.7841840679   -0.3790638871
O        3.1368967569    0.4369773509   -0.7510381764
O       -1.9200968835   -0.0547494957   -0.5537724702
H        1.4589399292   -0.1447669690    1.8867066603
H        0.5712214145   -1.6423497029    1.6254731305
H       -1.5007942562   -0.4306277542    1.7736684850
H       -0.5487043677    0.9852121397    2.2210519920
H        0.9853039105    1.6593729056   -0.2725358372
H        0.2729874747    0.9393007141   -1.7211371552
H        0.4778830307   -1.3252248063   -0.7346630420
H       -1.4066704867    1.8260379852    0.1801109598
H        4.0743316643    0.1794563421   -0.8484314942
H       -2.0737605791    0.2833638860   -1.4502702340
19   
torsion grid (-30,)
C        2.4663471957   -0.7362306548   -0.4947086930
C        0.6850332154   -0.5908596006    1.2980969485
C       -0.6273017392    0.2231796509    1.4690849318
C        0.3766045935    0.7949267147   -0.6656648922
C        0.9968698930   -0.5402284569   -0.2246031764
C       -0.9611027091    0.8123762403    0.0863633606
O        3.0037191184   -1.8148296176   -0.6615433264
O        3.1814347178    0.4267506351   -0.4768530179
O       -1.9214530745   -0.0697448358   -0.5232767277
H        1.5000512624   -0.1206428006    1.8573279068
H        0.5988085497   -1.6210573828    1.6493085215
H       -1.4623029358   -0.3972876106    1.8020142560
H       -0.4965529037    1.0237263404    2.2024452879
H        0.9994783107    1.6305573557   -0.3301372060
H        0.2582225227    0.8817372767   -1.7513918442
H        0.4786873473   -1.3627545885   -0.7225470203
H       -1.3821434658    1.8238670972    0.1568315495
H        4.1137497415    0.1667830155   -0.6076929792
H       -2.0879119111    0.2471272915   -1.4252190262
19   
torsion grid (-15,)
C        2.4569436417   -0.7348249851   -0.5369410168
C        0.6974627283   -0.5753641364    1.2974941951
C       -0.6106279011    0.2464808841    1.4687873331
C        0.3667356039    0.7699475298   -0.6898814429
C        0.9926672105   -0.5586784801   -0.2284844194
C       -0.9614493346    0.8056717795    0.0785073703
O        2.9724223406   -1.7493272266   -0.9666849568
O        3.1975847853    0.3755324411   -0.2458221675
O       -1.9304402232   -0.0873503129   -0.4996104241
H        1.5200397544   -0.0974241786    1.8371532952
H        0.6079485409   -1.5979830073    1.6706610793
H       -1.4431328886   -0.3632146338    1.8268286993
H       -0.4672036008    1.0628553402    2.1821112949
H        0.9956891633    1.6106426297   -0.3786170572
H        0.2344326206    0.8323017132   -1.7757530684
H        0.4735776880   -1.3893680949   -0.7099013528
H       -1.3789578919    1.8197863949    0.1314424639
H        4.1234556077    0.1384698268   -0.4452914074
H       -2.1055225731    0.2074039735   -1.4073961329
19   
torsion grid (0,)
C        2.3171866300   -0.5326920983   -0.5975532380
C        0.5213283449   -0.5982381531    1.2437019674
C       -0.5526134777    0.4827504806    1.5310297497
C        0.1622734036    0.8264216129   -0.7330150823
C        0.8439571273   -0.4877863043   -0.2815823637
C       -1.0812616406    0.9075191293    0.1602056652
O        2.8696262025   -1.3529238046   -1.3058297318
O        3.0144697879    0.4753986294    0.0071066976
O       -2.0762377792   -0.0553559723   -0.2262307805
H        1.4132475558   -0.4345939391    1.8523649056
H        0.1500309845   -1.6005211465    1.4665351945
H       -1.3652682474    0.1191392011    2.1643396916
H       -0.1035418754    1.3509136588    2.0235479835
H        0.8107165644    1.6837102433   -0.5248022253
H       -0.0721620838    0.8334887804   -1.8030879753
H        0.3966077518   -1.3281229905   -0.8125610770
H       -1.5188375734    1.9150463325    0.1726893668
H        3.9462102110    0.3521024954   -0.2562669649
H       -2.3404109622    0.1353068164   -1.1399679975
19   
torsion grid (15,)
C        2.2967983267   -0.5495451935   -0.6403637687
C        0.5179561630   -0.5913411569    1.2523000113
C       -0.5446015399    0.5057438174    1.5213821014
C        0.1576853864    0.7908785375   -0.7550893202
C        0.8349595922   -0.5181117274   -0.2725770297
C       -1.0793171447    0.9011317542    0.1441287641
O        2.7835246007   -1.1938165121   -1.5504355818
O        3.0566780100    0.2801497352    0.1342654361
O       -2.0815972001   -0.0644595044   -0.2141180356
H        1.4131633893   -0.4258277790    1.8542217325
H        0.1343102100   -1.5839079630    1.4978943548
H       -1.3559935800    0.1663725844    2.1695532149
H       -0.0841050378    1.3820163185    1.9885889995
H        0.8124150485    1.6497517218   -0.5703827147
H       -0.0799346459    0.7716259405   -1.8238585693
H        0.3784142169   -1.3650848079   -0.7853925666
H       -1.5103571622    1.9115614080    0.1344909444
H        3.9664706207    0.2109898803   -0.2127324810
H       -2.3515338553    0.1071674479   -1.1299701905
19   
torsion grid (30,)
C        2.3013521353   -0.4966467871   -0.6578668410
C        0.5292845500   -0.5586503865    1.2682242270
C       -0.5518470399    0.5245350271    1.5202427958
C        0.1469772709    0.7883021206   -0.7605393383
C        0.8478132032   -0.5007758691   -0.2536183086
C       -1.0917495536    0.8910640866    0.1366631076
O        2.7281622423   -0.9153889578   -1.7180201676
O        3.1204756806    0.1023693733    0.2541576182
O       -2.0770924214   -0.0961850130   -0.2088630953
H        1.4197747533   -0.3739699090    1.8704376962
H        0.1579917584   -1.5528648335    1.5265648080
H       -1.3585197630    0.1820212823    2.1726599917
H       -0.1071880669    1.4154358210    1.9752963788
H        0.7852612356    1.6632468767   -0.5897976740
H       -0.0851934428    0.7463395652   -1.8293159416
H        0.4015448001   -1.3601990294   -0.7563148626
H       -1.5394761171    1.8939562153    0.1117905738
H        4.0114778366    0.0953609017   -0.1453835087
H       -2.3478037584    0.0571368983   -1.1277524408
19   
torsion grid (45,)
C        2.6687649501    0.1981839155   -0.4494427284
C        0.8444762892   -0.1611963290    1.4001389061
C       -0.6100247134    0.3808240965    1.5060274346
C        0.3240331719    1.1133760739   -0.6055532907
C        1.2209676858   -0.0371543150   -0.0932614348
C       -1.0122918471    0.8267795651    0.0905169975
O        3.1168489185    0.1129357308   -1.5782787021
O        3.4525308699    0.5671677666    0.6022003640
O       -1.6932804095   -0.2816700296   -0.5226362964
H        1.5232850358    0.4364139252    2.0113286957
H        0.9278627665   -1.1954525800    1.7428982662
H       -1.3188226236   -0.3700334127    1.8623283551
H       -0.6581360186    1.2311707571    2.1925488648
H        0.7151773588    2.0793405364   -0.2619243445
H        0.2543366119    1.1460156871   -1.6969033313
H        0.9266603552   -0.9462570186   -0.6251004166
H       -1.6693799595    1.7065149217    0.1008951165
H        4.3420582168    0.7189447092    0.2276677643
H       -1.8729548172   -0.0493447351   -1.4475800621
19   
torsion grid (60,)
C        2.6713889531    0.2848317539   -0.4357031886
C        0.8569118015   -0.0913642968    1.4186377205
C       -0.6157822360    0.4001970807    1.5155511200
C        0.2929024601    1.1354200497   -0.6070066155
C        1.2278539100    0.0271159086   -0.0760975241
C       -1.0321114332    0.8123551815    0.0933426364
O        3.0753995833    0.4480864799   -1.5726622694
O        3.5146878970    0.3201342462    0.6330405082
O       -1.6721557264   -0.3292423190   -0.5046048066
H        1.5142542962    0.5392558426    2.0210007225
H        0.9792291336   -1.1153403230    1.7790940922
H       -1.2981401060   -0.3700312815    1.8821055221
H       -0.6948987188    1.2579281015    2.1899488815
H        0.6503172612    2.1202304842   -0.2806273720
H        0.2234949348    1.1491905714   -1.6983385882
H        0.9564286809   -0.8982503906   -0.5956631890
H       -1.7213872724    1.6670205385    0.0919929484
H        4.4035923551    0.4868719497    0.2630432270
H       -1.8616961688   -0.1145978400   -1.4318571732
19   
torsion grid (75,)
C        2.6902680354    0.3366438841   -0.4245372067
C        0.8755948497   -0.0446904421    1.4168334626
C       -0.6055806311    0.4209722793    1.5045325481
C        0.2886796558    1.1395031744   -0.6308261806
C        1.2463748687    0.0655520287   -0.0800665554
C       -1.0289559022    0.8006605884    0.0750907312
O        3.0827898692    0.7351180119   -1.5058089345
O        3.5537876010    0.0534236488    0.5898841353
O       -1.6438986640   -0.3651480047   -0.5040178612
H        1.5208018424    0.6053275463    2.0129745297
H        1.0178551375   -1.0609452936    1.7902606893
H       -1.2730941983   -0.3558277290    1.8844179608
H       -0.7014360937    1.2886601724    2.1638343582
H        0.6257924545    2.1380741149   -0.3264056654
H        0.2172641716    1.1327058711   -1.7219645388
H        0.9992456811   -0.8770410107   -0.5836668642
H       -1.7373893256    1.6392550649    0.0598877390
H        4.4472528695    0.2328363370    0.2373312858
H       -1.8392525547   -0.1685285183   -1.4340474754
19   
torsion grid (90,)
C        2.6710663496    0.4041382620   -0.4055772047
C        0.8630227527   -0.0065804699    1.4160291999
C       -0.6245329766    0.4366301086    1.5032287246
C        0.2461155332    1.1394970411   -0.6473048750
C        1.2293366877    0.0998488073   -0.0854251050
C       -1.0611034340    0.7847248182    0.0698864600
O        3.0628869047    1.0267815832   -1.3751797845
O        3.5367432420   -0.1434173374    0.4929993151
O       -1.6547396227   -0.4033968425   -0.4869974841
H        1.4992057186    0.6591478705    2.0057027899
H        1.0240910604   -1.0169831621    1.7964831187
H       -1.2766632131   -0.3448616225    1.8998777482
H       -0.7314895963    1.3137878147    2.1481016008
H        0.5642883304    2.1502617012   -0.3652030691
H        0.1668212727    1.1136167002   -1.7378500496
H        1.0146632177   -0.8594209750   -0.5731279336
H       -1.7873785381    1.6076231656    0.0450457674
H        4.4326889997    0.0742221623    0.1700327554
H       -1.8587616596   -0.2255630880   -1.4189118296
19   
torsion grid (105,)
C        2.6663993785    0.4115629060   -0.3599795809
C        0.8496366484    0.0071998509    1.4277312252
C       -0.6388526362    0.4482344931    1.5021996976
C        0.2349802689    1.1104755161   -0.6596887736
C        1.2215721925    0.0894703611   -0.0775742945
C       -1.0729373346    0.7659568255    0.0612628692
O        3.0741913390    1.2183188644   -1.1745397668
O        3.5168609647   -0.3432735307    0.3917291293
O       -1.6627432899   -0.4350724757   -0.4721656426
H        1.4815004559    0.6862244277    2.0078123400
H        1.0141731450   -0.9961349620    1.8244371731
H       -1.2889970286   -0.3275715387    1.9129948619
H       -0.7495050295    1.3377501135    2.1291527447
H        0.5505575345    2.1275303584   -0.3999931771
H        0.1552232441    1.0628283251   -1.7499456580
H        1.0268684968   -0.8854237687   -0.5406085460
H       -1.8016730070    1.5859117291    0.0185541406
H        4.4190238002   -0.0863196487    0.1195137961
H       -1.8649577350   -0.2766693604   -1.4079402528
19   
torsion grid (120,)
C        2.6558317779    0.4425299506   -0.3292873571
C        0.8440482190    0.0261379109    1.4312234429
C       -0.6471857809    0.4574719407    1.5042948572
C        0.2135909898    1.0923100861   -0.6696238226
C        1.2123408422    0.0902576081   -0.0796312996
C       -1.0891567769    0.7466051896    0.0602491486
O        3.0681189910    1.4044513242   -0.9499199605
O        3.5019168529   -0.4680291507    0.2309478296
O       -1.6697131653   -0.4687288796   -0.4506662793
H        1.4715019599    0.7189855315    2.0003277809
H        1.0182978996   -0.9712226962    1.8385584421
H       -1.2889238823   -0.3163354527    1.9317337891
H       -0.7615026226    1.3571313624    2.1158084273
H        0.5225669721    2.1149968671   -0.4264880938
H        0.1279359659    1.0281743277   -1.7591528908
H        1.0378285014   -0.8964800829   -0.5219494810
H       -1.8258728753    1.5587682001    0.0066420837
H        4.4058661366   -0.1634515324    0.0212379658
H       -1.8754698858   -0.3284153379   -1.3885171538
19   
torsion grid (135,)
C        2.6443937053    0.4583399552   -0.2904287418
C        0.8298591050    0.0434759411    1.4409526673
C       -0.6625429964    0.4725997671    1.5049715789
C        0.1994961873    1.0707377565   -0.6771661227
C        1.2020101463    0.0816376239   -0.0726394853
C       -1.1035638900    0.7335020608    0.0558410527
O        3.0583781306    1.5308060865   -0.6893487896
O        3.4875713473   -0.5594282449    0.0428948261
O       -1.6800701927   -0.4925026402   -0.4333064307
H        1.4534095366    0.7489842494    1.9988710813
H        1.0058261520   -0.9473155626    1.8636423452
H       -1.3021754232   -0.2948973853    1.9466372040
H       -0.7786850957    1.3834486792    2.0991996999
H        0.5075019127    2.0967359674   -0.4485410261
H        0.1140202611    0.9886210042   -1.7659956025
H        1.0423367862   -0.9145232231   -0.4951417952
H       -1.8423472940    1.5426173367   -0.0136575434
H        4.3925566924   -0.2204765495   -0.0990726971
H       -1.8834431075   -0.3707440596   -1.3742404469
19   
torsion grid (150,)
C        2.6437894649    0.4638265072   -0.2356210731
C        0.8086640998    0.0664396723    1.4631543954
C       -0.6849878204    0.4952172925    1.5024580545
C        0.2037560881    1.0538071247   -0.6780011035
C        1.2003463951    0.0730808679   -0.0467638838
C       -1.1087280146    0.7294107828    0.0442121139
O        3.0654657422    1.5947101501   -0.3924976346
O        3.4775142282   -0.6117938412   -0.1686439703
O       -1.6805400032   -0.5044786975   -0.4294714498
H        1.4243692341    0.7852342176    2.0122021023
H        0.9791782983   -0.9162587455    1.9071907410
H       -1.3291452996   -0.2645571464    1.9507752633
H       -0.8075322137    1.4168242211    2.0784200453
H        0.5111723625    2.0818510632   -0.4581416701
H        0.1305609249    0.9542863095   -1.7666066176
H        1.0509401355   -0.9297941327   -0.4533440237
H       -1.8455953841    1.5379504663   -0.0491566375
H        4.3843122573   -0.2583903482   -0.2543928950
H       -1.8735364164   -0.3997147878   -1.3745977409
19   
torsion grid (165,)
C        2.6575349960    0.4765027268   -0.1428133955
C        0.7837875784    0.0986848374    1.5217807901
C       -0.7123115515    0.5209292426    1.5161903436
C        0.2306624966    1.0410016905   -0.6497041191
C        1.2145279083    0.0707969216    0.0245152650
C       -1.0996168756    0.7260733090    0.0439160142
O        3.0899557713    1.6103196903   -0.0464234862
O        3.4723876595   -0.5858578376   -0.3916601150
O       -1.6566728963   -0.5171400517   -0.4215565915
H        1.3841512897    0.8337184430    2.0649614202
H        0.9449727774   -0.8733221818    1.9930371521
H       -1.3649998246   -0.2329018988    1.9621043752
H       -0.8524700604    1.4527089087    2.0713859703
H        0.5302931131    2.0725357022   -0.4345733590
H        0.1853982043    0.9233373002   -1.7382040989
H        1.0774337640   -0.9365519106   -0.3726976983
H       -1.8344285068    1.5318030721   -0.0843988846
H        4.3786816781   -0.2249306063   -0.4493839679
H       -1.8288987983   -0.4296008593   -1.3724250215
19   
torsion grid (180,)
C        2.6711311539    0.4452585359   -0.1008291078
C        0.7613591189    0.1153899492    1.5514848486
C       -0.7306311228    0.5491072157    1.5014122303
C        0.2656351941    1.0039093100   -0.6545196622
C        1.2274595915    0.0410398503    0.0716195233
C       -1.0830380038    0.7158606165    0.0157928513
O        3.1480531520    1.5146537710    0.2319379546
O        3.4219830175   -0.5248854240   -0.6920657323
O       -1.6372855392   -0.5350451446   -0.4296729974
H        1.3589937843    0.8593839775    2.0840643358
H        0.9003654726   -0.8450297151    2.0533816412
H       -1.4005296952   -0.1859976287    1.9529746472
H       -0.8753896240    1.4973987737    2.0268037285
H        0.5644937478    2.0391697195   -0.4550118163
H        0.2463944083    0.8588706985   -1.7404171299
H        1.0890082093   -0.9693832034   -0.3164860540
H       -1.8077200591    1.5235606273   -0.1527229056
H        4.3274253707   -0.1632875935   -0.7591903077
H       -1.7861544708   -0.4727171150   -1.3864758294
