20   
torsion grid (-165,)
C        0.6483043853    0.6082931044    1.1451604049
C       -1.4654177010   -0.4073941857    2.0565222637
C        0.0489248851    1.9907104848    1.4155871104
C       -1.9942427977    1.0151952825    2.2671089013
C        0.0686445703   -0.4170526378    2.1426879033
C        0.7014682134   -1.8145199399    1.9848128477
N       -1.4082990748    1.9271817927    1.2828726940
Cl       0.6719518299   -2.3886556824    0.2740140173
Cl       2.4442605110   -1.7370417363    2.5057980052
Cl      -0.1153769460   -3.0416959437    3.0274146297
H        0.3991307924    0.3159557750    0.1222403489
H        1.7374303755    0.6527206462    1.2310704847
H       -1.9015275377   -1.0659197935    2.8106242961
H       -1.7777783712   -0.7674202917    1.0707147124
H        0.3686638416    2.3371556060    2.4173229678
H        0.4380038160    2.7045472480    0.6824455107
H       -3.0822583016    1.0187678067    2.1458935556
H       -1.7766678902    1.3227259602    3.3082174804
H        0.3941052966   -0.0838743983    3.1360163790
H       -1.8059237891    2.8565713875    1.3972591417
20   
torsion grid (-150,)
C        0.6115815859    0.5891222825    1.0971594558
C       -1.4722288978   -0.4000955524    2.0978416426
C        0.0399830701    1.9803796433    1.3809572103
C       -1.9833659895    1.0299386662    2.3060404894
C        0.0614657316   -0.4187506772    2.1312640508
C        0.7091879414   -1.8206004632    1.9831279037
N       -1.4214120171    1.9293240168    1.2967182857
Cl       0.9910856993   -2.2930482975    0.2628095556
Cl       2.3541828980   -1.7652226220    2.7775595400
Cl      -0.2381939667   -3.1193429270    2.7951793203
H        0.3146572387    0.2953023826    0.0881332619
H        1.7047471972    0.6173998318    1.1369385214
H       -1.8879260623   -1.0407416009    2.8781570741
H       -1.8221099926   -0.7760341566    1.1302568942
H        0.3966154993    2.3296577665    2.3691676065
H        0.4110921503    2.6858099507    0.6305586678
H       -3.0745231219    1.0405253301    2.2179520829
H       -1.7321347434    1.3453145611    3.3371732738
H        0.4380994919   -0.0455720666    3.0899919382
H       -1.8074076045    2.8628844165    1.4167968794
20   
torsion grid (-135,)
C        0.5771981717    0.5802109996    1.0436595703
C       -1.4616214287   -0.3895996078    2.1508201443
C        0.0159295988    1.9759172717    1.3270994292
C       -1.9611009901    1.0445222116    2.3588131591
C        0.0724844705   -0.4115016234    2.1149062330
C        0.7241788551   -1.8286654699    1.9784522555
N       -1.4472113397    1.9249419350    1.3086308352
Cl       1.3521517304   -2.1850284723    0.3194398738
Cl       2.1770747415   -1.8844336349    3.0858589832
Cl      -0.3726608855   -3.1752965329    2.4588671119
H        0.2447541997    0.2684046438    0.0508717352
H        1.6708977275    0.6145315062    1.0413970839
H       -1.8415788464   -1.0144409410    2.9617969825
H       -1.8601049042   -0.7816310222    1.2091332157
H        0.4157338241    2.3421337422    2.2924808490
H        0.3543220211    2.6676310549    0.5489429974
H       -3.0552237195    1.0542495420    2.3224122991
H       -1.6613857388    1.3776443992    3.3713220705
H        0.4771251704   -0.0141593281    3.0502154039
H       -1.8275665501    2.8608198110    1.4286634219
20   
torsion grid (-120,)
C        0.5444868204    0.5786733189    0.9773330267
C       -1.4236338923   -0.3778641854    2.2168625626
C       -0.0280806121    1.9736092435    1.2465944424
C       -1.9175746207    1.0556021079    2.4353054043
C        0.1105515413   -0.3918442559    2.0916048762
C        0.7438362121   -1.8308439464    1.9813564336
N       -1.4879743337    1.9087919390    1.3265965212
Cl       1.7576915822   -2.0650557252    0.4990869410
Cl       1.8266523079   -2.1036171792    3.4179459251
Cl      -0.4815696800   -3.1634260225    1.9745642456
H        0.1809143633    0.2261380669    0.0080599408
H        1.6343564593    0.6433967057    0.9256729753
H       -1.7485164146   -0.9987651314    3.0554705338
H       -1.8791453035   -0.7765525078    1.3058308477
H        0.4282130819    2.3768232667    2.1714124369
H        0.2510527544    2.6422669651    0.4258914363
H       -3.0114986473    1.0571119923    2.4787211607
H       -1.5472987280    1.4171251452    3.4142284377
H        0.5096243503    0.0098318207    3.0268884978
H       -1.8686911331    2.8448488668    1.4443570091
20   
torsion grid (-105,)
C        0.5104375292    0.5662196674    0.9111270453
C       -1.3783968654   -0.3705155473    2.2816412636
C       -0.0717550805    1.9609941102    1.1671227247
C       -1.8657547319    1.0620354999    2.5139160446
C        0.1519085832   -0.3717899834    2.0716570735
C        0.7532132441   -1.8162237948    1.9932721243
N       -1.5214862924    1.8868428571    1.3543064877
Cl       2.1065437607   -1.9568678210    0.7980381978
Cl       1.3638962214   -2.3008978331    3.6256043291
Cl      -0.4668002659   -3.0625379092    1.4777438173
H        0.1066587062    0.1688862469   -0.0257409822
H        1.5932238529    0.6531689376    0.8002886785
H       -1.6475007890   -0.9963836356    3.1378939093
H       -1.8829535814   -0.7685543759    1.3984233161
H        0.4436349814    2.4021900859    2.0421575276
H        0.1395365322    2.6029772429    0.3058660183
H       -2.9538777383    1.0596486511    2.6343320438
H       -1.4291825935    1.4493843990    3.4548652895
H        0.5428679866    0.0341210142    3.0101347032
H       -1.9008173518    2.8235526728    1.4711340428
20   
torsion grid (-90,)
C        0.4787316090    0.5444053767    0.8718959714
C       -1.3474313449   -0.3631233040    2.3446592812
C       -0.1019997447    1.9424743737    1.1138053948
C       -1.8306928386    1.0723129530    2.5650269911
C        0.1744850363   -0.3627021618    2.0698357048
C        0.7500901258   -1.8015381164    1.9901117156
N       -1.5414638914    1.8671533436    1.3693895530
Cl       2.3210369926   -1.8661832631    1.0914681908
Cl       0.9944410426   -2.4517633956    3.6569663008
Cl      -0.3630913953   -2.9314833277    1.1026189424
H        0.0371051150    0.1155903753   -0.0339919488
H        1.5548921030    0.6337483745    0.7122150343
H       -1.5756503832   -0.9751177596    3.2228352307
H       -1.8858538719   -0.7789933799    1.4907207333
H        0.4499755182    2.4107876882    1.9515892937
H        0.0654972933    2.5610747178    0.2262469474
H       -2.9125125337    1.0700395921    2.7328275758
H       -1.3548709250    1.4855046574    3.4753646623
H        0.6004482742    0.0487662571    2.9925496992
H       -1.9197400735    2.8052974835    1.4776483812
20   
torsion grid (-75,)
C        0.4471182612    0.5207101730    0.8498877881
C       -1.3297554408   -0.3538767813    2.4019670472
C       -0.1217753830    1.9249865379    1.0795985756
C       -1.8104587467    1.0865361194    2.5947255264
C        0.1804427967   -0.3621717457    2.0776977382
C        0.7455059026   -1.7935592756    1.9747689409
N       -1.5542972906    1.8543111808    1.3740802760
Cl       2.4467314160   -1.7923636558    1.3527422525
Cl       0.7352506188   -2.5817628759    3.6011629049
Cl      -0.2270439971   -2.8134661399    0.8354853397
H       -0.0296965243    0.0758848026   -0.0296161102
H        1.5177777429    0.5985375448    0.6507595208
H       -1.5308068487   -0.9367519231    3.3051620699
H       -1.8909456774   -0.7995729578    1.5772974295
H        0.4518580228    2.4101292552    1.8928550405
H        0.0220493078    2.5251019573    0.1753531186
H       -2.8874026426    1.0869917783    2.7913412438
H       -1.3115223560    1.5221394859    3.4819355709
H        0.6710385734    0.0601284870    2.9639986419
H       -1.9306716272    2.7943185177    1.4725807394
20   
torsion grid (-60,)
C        0.4109705757    0.4972773590    0.8292022925
C       -1.3195282993   -0.3442046099    2.4513680361
C       -0.1354558233    1.9099617828    1.0558195995
C       -1.7964463202    1.1015815193    2.6166967428
C        0.1760652136   -0.3656659471    2.0827337455
C        0.7459419198   -1.7896045581    1.9549689745
N       -1.5623452592    1.8490562217    1.3793705603
Cl       2.5233850567   -1.7309552019    1.6047653374
Cl       0.5346438555   -2.6959126872    3.5095068994
Cl      -0.0623346875   -2.7207264541    0.6362943668
H       -0.1035640122    0.0503307327   -0.0265144028
H        1.4761125463    0.5535645780    0.5928792840
H       -1.4965648422   -0.8943804309    3.3785701456
H       -1.9011649617   -0.8207643371    1.6570121846
H        0.4574892639    2.4005820872    1.8517417287
H       -0.0068509684    2.4987783305    0.1419135278
H       -2.8695122846    1.1069947946    2.8333986591
H       -1.2809744029    1.5525641016    3.4866014727
H        0.7377827033    0.0762875006    2.9158322091
H       -1.9342531655    2.7914857031    1.4716222910
20   
torsion grid (-45,)
C        0.3682791135    0.4737573623    0.8044599758
C       -1.3115229925   -0.3339279861    2.4943806110
C       -0.1482402389    1.8962497347    1.0341789770
C       -1.7811940744    1.1173376462    2.6397396857
C        0.1679638592   -0.3694488218    2.0828014335
C        0.7550109095   -1.7871967876    1.9375803717
N       -1.5682822320    1.8497734220    1.3897997913
Cl       2.5655037181   -1.6903308272    1.8719246162
Cl       0.3517891906   -2.8037393735    3.3895945181
Cl       0.1458797841   -2.6414821370    0.4759452843
H       -0.1889710948    0.0311337950   -0.0249785374
H        1.4257224552    0.5029652651    0.5271688219
H       -1.4647639423   -0.8559114082    3.4410551033
H       -1.9150978759   -0.8340833611    1.7299695893
H        0.4677544519    2.3858189405    1.8130624666
H       -0.0348061413    2.4775728816    0.1134950311
H       -2.8499798074    1.1292122830    2.8764378457
H       -1.2483897518    1.5780265319    3.4939225190
H        0.7887106479    0.1049852406    2.8526775228
H       -1.9319698709    2.7955380846    1.4805680278
20   
torsion grid (-30,)
C        0.3192652049    0.4512618255    0.7740670032
C       -1.3010474542   -0.3213557193    2.5349961166
C       -0.1694174343    1.8829805233    1.0054481654
C       -1.7575133037    1.1358082676    2.6702260673
C        0.1607463613   -0.3712590793    2.0747526003
C        0.7716309085   -1.7886678193    1.9278198687
N       -1.5776994248    1.8529076311    1.4065195218
Cl       2.5672247046   -1.6852406123    2.1818326948
Cl       0.1543634413   -2.9132800587    3.2198194745
Cl       0.4265935902   -2.5589562043    0.3408514293
H       -0.2778673911    0.0098838596   -0.0269167391
H        1.3661245605    0.4588568131    0.4544462047
H       -1.4251792307   -0.8205803176    3.4976296311
H       -1.9330539917   -0.8361752925    1.8033585142
H        0.4763732674    2.3743150936    1.7586609254
H       -0.0804000402    2.4533829987    0.0752718942
H       -2.8185595174    1.1578030898    2.9388545837
H       -1.1964854477    1.6030941631    3.5025053508
H        0.8197377702    0.1391393166    2.7854743526
H       -1.9314404654    2.8023320060    1.4981659953
20   
torsion grid (-15,)
C        0.2667293672    0.4332769451    0.7346222070
C       -1.2725708363   -0.3018871423    2.5819421704
C       -0.2114221640    1.8695904561    0.9613132164
C       -1.7171267705    1.1593240182    2.7126132579
C        0.1665966221   -0.3661241783    2.0534932537
C        0.7877841695   -1.7979881736    1.9275581496
N       -1.5989845268    1.8509889019    1.4280476853
Cl       2.4907210316   -1.7542720506    2.5622032945
Cl      -0.0925698719   -3.0242997372    2.9434055458
Cl       0.8101760782   -2.4458812209    0.2468407951
H       -0.3618296552   -0.0227167405   -0.0338689166
H        1.2985606030    0.4395970930    0.3698053992
H       -1.3504061119   -0.7804881532    3.5600117613
H       -1.9438463314   -0.8277211317    1.8951187478
H        0.4693670857    2.3739394275    1.6741484755
H       -0.1642583934    2.4214208325    0.0169704650
H       -2.7632750369    1.1896572024    3.0338290769
H       -1.1139327518    1.6406600919    3.5065950694
H        0.8402385910    0.1662716624    2.7313754846
H       -1.9465549906    2.8029023823    1.5177585157
20   
torsion grid (0,)
C        0.2110947848    0.4158621534    0.6836790680
C       -1.2191900662   -0.2774398287    2.6328238819
C       -0.2785665368    1.8510079378    0.9002299093
C       -1.6522681657    1.1854438161    2.7699702402
C        0.1901232652   -0.3533205659    2.0171971353
C        0.7885184366   -1.8092932734    1.9386950670
N       -1.6302380417    1.8398425772    1.4611215396
Cl       2.2670772844   -1.8922194996    2.9944613923
Cl      -0.3518615236   -3.0930861260    2.5137509198
Cl       1.2956863103   -2.2946845024    0.2689234471
H       -0.4398067286   -0.0758645088   -0.0448391247
H        1.2219352422    0.4419625150    0.2689269822
H       -1.2348439461   -0.7482688798    3.6190354510
H       -1.9368301651   -0.8030451737    1.9965464671
H        0.4437556681    2.3825715830    1.5496929188
H       -0.2996285167    2.3736334108   -0.0615215869
H       -2.6720466365    1.2235275428    3.1664346038
H       -0.9929998064    1.6875162838    3.5043743857
H        0.8596233311    0.1793130914    2.6980022953
H       -1.9761380816    2.7927919318    1.5462786620
20   
torsion grid (15,)
C        0.1556768735    0.3904623453    0.6366784748
C       -1.1604965880   -0.2583973578    2.6786965927
C       -0.3443946998    1.8247706858    0.8429380893
C       -1.5801224286    1.2063532204    2.8250454881
C        0.2174775503   -0.3414726932    1.9839653802
C        0.7747536079   -1.8045162797    1.9453875207
N       -1.6522631027    1.8251101757    1.5001041001
Cl       1.9219061518   -2.0295344070    3.3373222212
Cl      -0.4953943514   -3.0789833806    2.0279706801
Cl       1.7433633545   -2.1360347148    0.4408628014
H       -0.5213695384   -0.1381557480   -0.0422800658
H        1.1407240102    0.4271478478    0.1675870804
H       -1.1198799632   -0.7322970147    3.6643961641
H       -1.9167096979   -0.7764853080    2.0843045613
H        0.4171567057    2.3828849627    1.4212745211
H       -0.4395551250    2.3161071987   -0.1307440241
H       -2.5691580986    1.2558866147    3.2917970897
H       -0.8699381190    1.7252884839    3.4976131362
H        0.8862014490    0.1885040684    2.6686350979
H       -1.9945818829    2.7796117851    1.5822287455
20   
torsion grid (30,)
C        0.1101729967    0.3626223780    0.6126851205
C       -1.1127254812   -0.2428573169    2.7248300823
C       -0.3887767498    1.7991947000    0.8057229619
C       -1.5303617667    1.2233275253    2.8592589079
C        0.2359245125   -0.3347965478    1.9724441063
C        0.7665065829   -1.7910964224    1.9348727725
N       -1.6642802354    1.8108802610    1.5243906503
Cl       1.5916174489   -2.1581568435    3.5109297086
Cl      -0.5128496166   -3.0139181027    1.6203654390
Cl       2.0402495023   -1.9991615283    0.6506927478
H       -0.5963127250   -0.1883299996   -0.0174661520
H        1.0715668209    0.3895487022    0.0966421540
H       -1.0274344618   -0.7013148228    3.7151156066
H       -1.8910531558   -0.7721674414    2.1707374818
H        0.3962843047    2.3750707865    1.3328340780
H       -0.5332519138    2.2654529225   -0.1741714449
H       -2.4978854686    1.2815679497    3.3681961724
H       -0.7927030193    1.7593091732    3.4872434415
H        0.9348789461    0.1950142028    2.6286930810
H       -2.0061704134    2.7660609091    1.5997667393
20   
torsion grid (45,)
C        0.0747176902    0.3380801653    0.6059623105
C       -1.0751002587   -0.2255491864    2.7720723749
C       -0.4174152073    1.7782168111    0.7834778075
C       -1.5025823258    1.2405442610    2.8771631907
C        0.2448186747   -0.3322295351    1.9776601008
C        0.7685018050   -1.7809339207    1.9184053489
N       -1.6746231470    1.7980558171    1.5338269163
Cl       1.3202897631   -2.2940393229    3.5690346318
Cl      -0.4682267517   -2.9392465365    1.3120319903
Cl       2.2234120387   -1.8972535774    0.8361364599
H       -0.6554738017   -0.2227949574    0.0135197392
H        1.0190047714    0.3477168809    0.0579186888
H       -0.9540493785   -0.6490569322    3.7730496356
H       -1.8641798738   -0.7822699243    2.2603783985
H        0.3788087143    2.3657055152    1.2801383623
H       -0.5882039972    2.2260175747   -0.2007782099
H       -2.4573685336    1.3033225589    3.4090607553
H       -0.7536980521    1.7962549580    3.4739197119
H        0.9951027501    0.2030429639    2.5724282477
H       -2.0203387724    2.7526668714    1.5983771937
20   
torsion grid (60,)
C        0.0370643352    0.3130736673    0.6034238578
C       -1.0463670775   -0.2087527756    2.8143075721
C       -0.4386327716    1.7594197183    0.7673696696
C       -1.4821830886    1.2574908054    2.8905219323
C        0.2464229041   -0.3316207352    1.9867849763
C        0.7811890752   -1.7725492546    1.9065722297
N       -1.6812247951    1.7915318982    1.5415999764
Cl       1.0811243989   -2.4298417140    3.5689179963
Cl      -0.3746704475   -2.8718558426    1.0611670528
Cl       2.3612738568   -1.8110484438    1.0208609923
H       -0.7190802935   -0.2478964863    0.0466743634
H        0.9645204222    0.2979510492    0.0260715744
H       -0.8965905613   -0.5959994015    3.8248276608
H       -1.8422123647   -0.7918624313    2.3416859964
H        0.3687875033    2.3517124701    1.2396964400
H       -0.6278402324    2.1931055474   -0.2198367955
H       -2.4271208984    1.3262457178    3.4390051688
H       -0.7250845917    1.8275106742    3.4629405195
H        1.0405395526    0.2227952905    2.5034117865
H       -2.0265188183    2.7468407312    1.5977806849
20   
torsion grid (75,)
C       -0.0070644127    0.2869854023    0.6001980419
C       -1.0227215627   -0.1913858712    2.8520269311
C       -0.4582339689    1.7416736279    0.7530020190
C       -1.4610979492    1.2760952231    2.9042251792
C        0.2424316774   -0.3321810036    1.9931455896
C        0.7997297697   -1.7673119325    1.9005211577
N       -1.6846975189    1.7912043446    1.5520050467
Cl       0.8511306406   -2.5654986049    3.5257419791
Cl      -0.2280977766   -2.8137888400    0.8363372359
Cl       2.4770712826   -1.7380199107    1.2280671198
H       -0.7923905252   -0.2671695104    0.0807420601
H        0.9010063303    0.2414167113   -0.0074672917
H       -0.8449590193   -0.5462158729    3.8691390069
H       -1.8268976217   -0.7946823363    2.4183413511
H        0.3634310850    2.3335019587    1.2007018372
H       -0.6649688083    2.1637931895   -0.2357051378
H       -2.3956883009    1.3537852177    3.4690162885
H       -0.6938096674    1.8549282881    3.4537938337
H        1.0645227872    0.2505926896    2.4279922141
H       -2.0253003332    2.7485277144    1.6019591927
20   
torsion grid (90,)
C       -0.0609259087    0.2602144226    0.5921779257
C       -0.9995932273   -0.1718064769    2.8855972956
C       -0.4870971937    1.7232746557    0.7350543748
C       -1.4294453618    1.2993323163    2.9222573502
C        0.2335648187   -0.3341197272    1.9892462210
C        0.8173741758   -1.7689645151    1.8980719336
N       -1.6883314042    1.7960676931    1.5697464973
Cl       0.5995779359   -2.7002587903    3.4358850279
Cl      -0.0035853374   -2.7571304067    0.6123247093
Cl       2.5769581850   -1.6852298480    1.5008850369
H       -0.8733735836   -0.2882855679    0.1114135319
H        0.8246310619    0.1877862667   -0.0468503854
H       -0.7887212471   -0.5017493513    3.9045538133
H       -1.8196350564   -0.7838285501    2.4950722461
H        0.3538286291    2.3132221766    1.1481575023
H       -0.7201009431    2.1323030276   -0.2533286851
H       -2.3467668305    1.3924006685    3.5124618195
H       -0.6428979467    1.8811596198    3.4406164415
H        1.0683531961    0.2752882090    2.3551729837
H       -2.0204178544    2.7565746623    1.6152680147
20   
torsion grid (105,)
C       -0.1250925684    0.2367448035    0.5743807577
C       -0.9606593600   -0.1464970535    2.9149857308
C       -0.5413056302    1.7037281702    0.7100218535
C       -1.3775743306    1.3283217042    2.9461209285
C        0.2300539762   -0.3339686589    1.9650953709
C        0.8258665540   -1.7810481905    1.8939172526
N       -1.7007527131    1.8000599306    1.5987993004
Cl       0.2936377344   -2.8352022210    3.2670013303
Cl       0.3316320625   -2.6755543433    0.3895592652
Cl       2.6323570656   -1.6865474884    1.8973319209
H       -0.9569969800   -0.3197573800    0.1369711103
H        0.7310610031    0.1560102059   -0.1022134267
H       -0.7036380562   -0.4596908420    3.9289489680
H       -1.8045306117   -0.7569198784    2.5774970576
H        0.3208631086    2.2971403749    1.0713350448
H       -0.8182729824    2.0944023922   -0.2744477538
H       -2.2635869391    1.4387179957    3.5796380682
H       -0.5625913510    1.9145325505    3.4131609964
H        1.0681325824    0.2884375295    2.2946231605
H       -2.0252064565    2.7633408835    1.6410567186
20   
torsion grid (120,)
C       -0.1958588034    0.2170371477    0.5443751435
C       -0.8941809187   -0.1183409030    2.9370229159
C       -0.6268763465    1.6809542992    0.6773822544
C       -1.2960561200    1.3592609630    2.9740473271
C        0.2393369053   -0.3294865035    1.9160624636
C        0.8166359573   -1.7955959577    1.8817989761
N       -1.7202406752    1.7963304048    1.6432846624
Cl      -0.0590860392   -2.9452100036    2.9733022773
Cl       0.7960595553   -2.5443192438    0.2336390173
Cl       2.5506929552   -1.7530530047    2.4312727246
H       -1.0347780118   -0.3672760922    0.1555119850
H        0.6235034544    0.1504746203   -0.1757255511
H       -0.5755203279   -0.4273334462    3.9358486676
H       -1.7664799992   -0.7172193352    2.6606256601
H        0.2534778407    2.2894737248    0.9615901317
H       -0.9749977570    2.0438698959   -0.2950686706
H       -2.1307431030    1.4883201920    3.6706200322
H       -0.4461254713    1.9530547789    3.3627641511
H        1.0787898029    0.2854185224    2.2515752503
H       -2.0441567901    2.7598904257    1.6838542362
20   
torsion grid (135,)
C       -0.2638056913    0.1907958218    0.5191401105
C       -0.8246470424   -0.0989711917    2.9531940837
C       -0.7061970524    1.6525431081    0.6496435968
C       -1.2102775706    1.3817948775    2.9976595129
C        0.2526126817   -0.3242677066    1.8694259669
C        0.8064575275   -1.7888227697    1.8659843223
N       -1.7267616158    1.7895697755    1.6897280192
Cl      -0.3229334321   -2.9964829092    2.6006293449
Cl       1.2651752792   -2.3817248531    0.2272898884
Cl       2.3128327530   -1.8188887997    2.9005324568
H       -1.1117177632   -0.4188502939    0.1895509620
H        0.5130032711    0.1263665135   -0.2456440200
H       -0.4515526039   -0.4138542499    3.9324853137
H       -1.7194625965   -0.6831135264    2.7263613409
H        0.1877772077    2.2734494376    0.8527680133
H       -1.1273335722    1.9884042341   -0.3034385606
H       -1.9937759255    1.5299908548    3.7477749963
H       -0.3329165375    1.9792512955    3.3126241994
H        1.0954111582    0.2852265387    2.2079913952
H       -2.0484923672    2.7538343281    1.7300827120
20   
torsion grid (150,)
C        0.7278832109    0.6737186750    1.2462901296
C       -1.4446052255   -0.4144694547    1.8929289396
C        0.0636337032    2.0290469430    1.5136383976
C       -2.0127518542    0.9784637284    2.1754325501
C        0.0834377521   -0.4080044483    2.1227935094
C        0.7011767566   -1.8245115398    1.9864096032
N       -1.3795438256    1.9497599011    1.2804330431
Cl      -0.0501572835   -2.8014032022    0.6660644280
Cl       2.4851229071   -1.7901609526    1.7414271049
Cl       0.3799292585   -2.7287096638    3.5418706342
H        0.6069505900    0.4094392903    0.1901173861
H        1.7968779949    0.7577616742    1.4519773329
H       -1.9243412945   -1.1539234599    2.5413510680
H       -1.6696823615   -0.6731698069    0.8560849477
H        0.3061541808    2.3402584291    2.5481144562
H        0.4881224860    2.7793387658    0.8388288762
H       -3.0909853344    0.9765181540    1.9860672764
H       -1.8644323954    1.2260293964    3.2442888852
H        0.1895373516   -0.1667500061    3.1861891249
H       -1.7989305093    2.8670180618    1.4134759614
20   
torsion grid (165,)
C        0.7069598938    0.6529579444    1.2156852916
C       -1.4474708171   -0.4146674188    1.9563875996
C        0.0570312769    2.0164327524    1.4731435226
C       -2.0046782160    0.9883446406    2.2104448564
C        0.0855187936   -0.4088209721    2.1361733243
C        0.7012939272   -1.8146041588    1.9848619623
N       -1.3915804649    1.9353365185    1.2763839757
Cl       0.1639700775   -2.6365751481    0.4706034710
Cl       2.5059320095   -1.7622317872    2.0127759523
Cl       0.1690484043   -2.8476029069    3.3864183508
H        0.5480834800    0.3678316553    0.1704741617
H        1.7829172961    0.7324993240    1.3845249440
H       -1.9109383871   -1.1280651798    2.6432732496
H       -1.7025234380   -0.7098932036    0.9357491204
H        0.3254324866    2.3487574183    2.4945862302
H        0.4665872633    2.7509965392    0.7723133254
H       -3.0871073963    0.9838946363    2.0468292666
H       -1.8306627737    1.2637139857    3.2685656695
H        0.2617007490   -0.1485270456    3.1872871713
H       -1.8061180571    2.8564728905    1.3973022097
20   
torsion grid (180,)
C        0.6808261286    0.6303499147    1.1847764858
C       -1.4554727305   -0.4123082321    2.0113452415
C        0.0529106463    2.0031333088    1.4427792615
C       -1.9997719832    1.0011798977    2.2373939224
C        0.0789573620   -0.4128021476    2.1448337958
C        0.6999072926   -1.8118056756    1.9845371979
N       -1.3999044252    1.9278331832    1.2751696522
Cl       0.3990509448   -2.4968807657    0.3423508234
Cl       2.4903061120   -1.7431478271    2.2576552881
Cl       0.0139432593   -2.9519752109    3.2155319885
H        0.4798902028    0.3371047228    0.1502495395
H        1.7636557240    0.6954875558    1.3147330788
H       -1.9062551933   -1.0955777692    2.7349302557
H       -1.7375024562   -0.7451658872    1.0082241176
H        0.3441893584    2.3468733608    2.4541053974
H        0.4529818358    2.7253158309    0.7238476111
H       -3.0850841652    0.9989061832    2.0940335110
H       -1.8052554329    1.2970982992    3.2864066337
H        0.3334625358   -0.1203601963    3.1717421485
H       -1.8074389080    2.8529919396    1.3891377042
