22   
torsion grid (-165,)
C       -0.7783936276   -0.7428431089   -0.9426061863
C        0.2125460210    2.3336702982    0.9731060910
C        0.3838996196   -1.6947228810   -0.6989975137
C        1.1293001886   -1.4516301894    0.6147828960
C        1.4012803341    0.0422936371    0.8053449068
C        0.0685145068    0.8030273700    0.8863793032
C        1.3773948018    4.6182099315    2.0798085325
N       -0.7952230427    0.4229377470   -0.2197295300
O       -1.6430737176   -0.9816100579   -1.7833698893
S       -0.8253421881    3.3793265936    0.2455823222
S        1.5510360086    2.8124522029    2.0006252583
H       -0.0112747818   -2.7109060302   -0.7690938062
H        1.0640137344   -1.5660269474   -1.5499863796
H        0.5344157913   -1.8215387770    1.4595103262
H        2.0715167778   -2.0091808869    0.6247086884
H        1.9755818004    0.2067249157    1.7202594217
H        1.9904426258    0.4327458230   -0.0322189392
H       -0.4103845159    0.5268119642    1.8416296904
H        2.1783061841    4.9627340633    2.7381501396
H        0.4035985037    4.8896317718    2.4906883906
H        1.4886280949    5.0551336769    1.0864634333
H       -1.5640309216    1.0510192487   -0.4383759271
22   
torsion grid (-150,)
C       -0.7163944621   -0.7062255879   -1.0008145912
C        0.1558574534    2.3205066477    1.0512761980
C        0.4300541235   -1.6674344941   -0.7219737611
C        1.0960064028   -1.4663370155    0.6407132362
C        1.3684233828    0.0199938593    0.8867125284
C        0.0414717935    0.7895919555    0.9076499361
C        1.4218842449    4.6226262958    1.9864647884
N       -0.7525705140    0.4535998967   -0.2675810742
O       -1.5475414805   -0.9285351113   -1.8790090226
S       -1.0531190231    3.3359601954    0.5898530487
S        1.6454997889    2.8291236085    1.8157195159
H        0.0383200691   -2.6797010432   -0.8460396274
H        1.1596830305   -1.5144546559   -1.5267517981
H        0.4476734234   -1.8531934415    1.4371485120
H        2.0313274624   -2.0330094082    0.6927847150
H        1.8857226359    0.1539998877    1.8402460777
H        2.0136603101    0.4195274449    0.0962974222
H       -0.4995841641    0.4854084852    1.8203139382
H        2.3278056314    4.9885619484    2.4752445797
H        0.5446631382    4.8405763656    2.5978641549
H        1.3058246595    5.0856367015    1.0054091863
H       -1.5419157091    1.0620378309   -0.4688667340
22   
torsion grid (-135,)
C       -0.6549599925   -0.6532281016   -1.0473645690
C        0.1142043395    2.2942871868    1.1480351618
C        0.4741603745   -1.6285056183   -0.7466910491
C        1.0619152317   -1.4858801224    0.6592455863
C        1.3357189118   -0.0120366256    0.9724867381
C        0.0178884966    0.7685617734    0.9454975599
C        1.4488992608    4.6277803125    1.8749752020
N       -0.7019917354    0.4972096132   -0.2977945304
O       -1.4582737945   -0.8510798733   -1.9563461937
S       -1.2028708555    3.2622088479    0.9518709019
S        1.6968356882    2.8454218627    1.6373154072
H        0.0891402931   -2.6332952045   -0.9349089213
H        1.2490689059   -1.4437768988   -1.5010666061
H        0.3634869385   -1.8926059643    1.4015644308
H        1.9859595234   -2.0668186352    0.7441958404
H        1.7983771512    0.0881385004    1.9581942410
H        2.0305083984    0.3986276597    0.2314251824
H       -0.5847396477    0.4275288811    1.8032527387
H        2.4152555422    5.0223652634    2.1971645800
H        0.6902792321    4.8070520343    2.6386947532
H        1.1393850192    5.0951236423    0.9388471548
H       -1.5054950840    1.0911818316   -0.4859323803
22   
torsion grid (-120,)
C       -0.5822916331   -0.5796355390   -1.0892817658
C        0.0851084128    2.2563088667    1.2585876830
C        0.5270777439   -1.5732044688   -0.7750173135
C        1.0243286786   -1.5109753842    0.6717289132
C        1.2942386689   -0.0577185509    1.0715966675
C       -0.0114191784    0.7386756816    1.0055615740
C        1.4591965254    4.6288527185    1.7361738010
N       -0.6618653887    0.5385612321   -0.2925435088
O       -1.3431487511   -0.7340185261   -2.0419802900
S       -1.2801892483    3.1738996347    1.3316927384
S        1.7116317232    2.8534282538    1.4548851474
H        0.1538031953   -2.5640880427   -1.0432125316
H        1.3489688496   -1.3495809971   -1.4665621650
H        0.2740028314   -1.9433820051    1.3456741038
H        1.9338338924   -2.1094909429    0.7860354563
H        1.6984149905   -0.0015851331    2.0864038447
H        2.0373541084    0.3712769828    0.3904669136
H       -0.6695770258    0.3693672887    1.8060521177
H        2.4557449507    5.0538035898    1.8763274930
H        0.8482076494    4.7888237988    2.6261327049
H        0.9691565540    5.0823906867    0.8731406194
H       -1.4698253518    1.1265512211   -0.4792009744
22   
torsion grid (-105,)
C       -0.5030338127   -0.4966768220   -1.1245021814
C        0.0754360050    2.2160536940    1.3674199649
C        0.5723725805   -1.5219084630   -0.7933885657
C        0.9856829741   -1.5370837948    0.6816131078
C        1.2541005450   -0.1087954040    1.1629426821
C       -0.0339297235    0.7111013121    1.0615165301
C        1.4441341095    4.6265891549    1.5980098961
N       -0.6150849264    0.5838001514   -0.2799176214
O       -1.2111355528   -0.5946100947   -2.1238216596
S       -1.2797222338    3.0848638640    1.7112798667
S        1.6932496814    2.8588809420    1.2679157408
H        0.1992660833   -2.4921785127   -1.1289242180
H        1.4364782136   -1.2825867876   -1.4255725603
H        0.1913531004   -1.9877988759    1.2897677188
H        1.8780770156   -2.1564711089    0.8176648134
H        1.6007439984   -0.0971435630    2.2003693385
H        2.0421118719    0.3329668840    0.5435911543
H       -0.7440339336    0.3226365038    1.8037865585
H        2.4358598565    5.0822073569    1.5514527205
H        1.0054721417    4.7697754272    2.5869225512
H        0.7882151283    5.0634453836    0.8432195599
H       -1.4128609246    1.1811931181   -0.4786841681
22   
torsion grid (-90,)
C       -0.4257516301   -0.4272201550   -1.1535081911
C        0.0778520372    2.1811424033    1.4558063315
C        0.6251343982   -1.4721685597   -0.8060703700
C        0.9441888895   -1.5579305740    0.6899608695
C        1.2043840494   -0.1555567761    1.2443402121
C       -0.0633388289    0.6911403153    1.1017681716
C        1.4219722143    4.6190230287    1.4700570752
N       -0.5828148525    0.6154091819   -0.2685933260
O       -1.0797077091   -0.4790136687   -2.1922735734
S       -1.1962064456    3.0041927859    2.0931222984
S        1.6332399703    2.8641048112    1.0553277495
H        0.2708956417   -2.4234363567   -1.2094977032
H        1.5280617041   -1.2082746532   -1.3706924593
H        0.1046913413   -2.0174781897    1.2266958921
H        1.8152310613   -2.2001554744    0.8554039117
H        1.4865529664   -0.1850528122    2.3008780597
H        2.0358947842    0.2962168093    0.6934186052
H       -0.8163745494    0.3008876214    1.7972467840
H        2.3760118872    5.0977817005    1.2379757927
H        1.1867273893    4.7335805673    2.5294260216
H        0.6212679001    5.0560674262    0.8710607387
H       -1.3651600215    1.2250009341   -0.4891916615
22   
torsion grid (-75,)
C       -0.3608614646   -0.3966700212   -1.1852701098
C        0.0823008904    2.1641891675    1.4967564718
C        0.6621712861   -1.4564507091   -0.8015073154
C        0.9078806409   -1.5674576263    0.7070548513
C        1.1556405053   -0.1768590953    1.2947448191
C       -0.0922559429    0.6911648444    1.0967113514
C        1.3949528399    4.6189401520    1.3966760585
N       -0.5466025668    0.6375679056   -0.2962099093
O       -0.9669297750   -0.4296017617   -2.2533320910
S       -1.0291011579    2.9177201831    2.4453429567
S        1.5144344441    2.9018119602    0.8186132163
H        0.3198933285   -2.3983693574   -1.2359420565
H        1.5938758938   -1.1927630540   -1.3174926290
H        0.0393455626   -2.0264438823    1.1957575039
H        1.7638550858   -2.2212119430    0.9035494819
H        1.3765483423   -0.2224306102    2.3653367833
H        2.0210462734    0.2757161774    0.8000338003
H       -0.8827741522    0.3068709071    1.7517949527
H        2.2722544197    5.1309138063    0.9948572062
H        1.3997739071    4.6550460655    2.4872534212
H        0.4806067575    5.0824343201    1.0223384562
H       -1.3033029203    1.2641429369   -0.5544059910
22   
torsion grid (-60,)
C       -0.2971817766   -0.3803119171   -1.2172493931
C        0.0682087649    2.1555858327    1.5085171055
C        0.7104487420   -1.4381755107   -0.7901952349
C        0.8730363426   -1.5642903587    0.7281812138
C        1.0920978441   -0.1799544510    1.3406425005
C       -0.1408988759    0.6974503420    1.0820972686
C        1.3811110024    4.6063785560    1.3375006913
N       -0.5428368507    0.6379621856   -0.3245914740
O       -0.8432550460   -0.4032762792   -2.3174733612
S       -0.7820303735    2.8128155343    2.7514130668
S        1.3081327123    2.9612445339    0.5714906600
H        0.3992010236   -2.3771017053   -1.2535050386
H        1.6675159572   -1.1624486231   -1.2504629204
H       -0.0218966906   -2.0249627504    1.1647826332
H        1.7155808307   -2.2221207862    0.9652629154
H        1.2501481913   -0.2344873747    2.4217155758
H        1.9818834422    0.2806406351    0.8997523649
H       -0.9581812706    0.3260583509    1.7111966851
H        2.1462448387    5.1582316561    0.7867744946
H        1.6540254415    4.5257622323    2.3910000508
H        0.4162687043    5.1087143824    1.2504433214
H       -1.2748707561    1.2745458805   -0.6246318967
22   
torsion grid (-45,)
C       -0.2353872345   -0.3545725480   -1.2369607937
C        0.0733083464    2.1418998579    1.5315085451
C        0.7601486996   -1.4103390262   -0.7804129816
C        0.8384310706   -1.5650725699    0.7415832532
C        1.0237395611   -0.1937212223    1.3926593117
C       -0.1854246711    0.7032739088    1.0788982001
C        1.3572691250    4.5935270395    1.2720490525
N       -0.5249302426    0.6517973339   -0.3424776697
O       -0.7376959453   -0.3663056975   -2.3577123379
S       -0.4870213610    2.6976987538    2.9721340657
S        1.0851222003    3.0211347955    0.4035682960
H        0.4860615531   -2.3421564630   -1.2799386949
H        1.7381603080   -1.1139421276   -1.1799506357
H       -0.0789496592   -2.0335826350    1.1192247550
H        1.6672564879   -2.2271645329    1.0128863870
H        1.1135704358   -0.2692935891    2.4795947021
H        1.9382984863    0.2753516352    1.0147408579
H       -1.0344172492    0.3490218246    1.6753114840
H        1.9905715375    5.1924516220    0.6136362674
H        1.8556271614    4.4225998634    2.2277702596
H        0.4065904691    5.1005172680    1.4453574854
H       -1.2475768816    1.2851368741   -0.6708085800
22   
torsion grid (-30,)
C       -0.1693602508   -0.3302984086   -1.2517679381
C        0.1357129120    2.1257434714    1.5572375779
C        0.7880017695   -1.4078932425   -0.7689805175
C        0.7859940173   -1.5859325264    0.7519326932
C        0.9701931160   -0.2294023197    1.4316770544
C       -0.1947512879    0.7130019440    1.0742901964
C        1.3007770388    4.6208488799    1.2238831909
N       -0.4717720319    0.6772064125   -0.3602139311
O       -0.6349997450   -0.3242409064   -2.3880677865
S       -0.1542157814    2.5784116028    3.1101233353
S        0.9003810138    3.0976037167    0.3172300117
H        0.5250006493   -2.3265846462   -1.2977660250
H        1.7894122388   -1.1198551008   -1.1128082529
H       -0.1591744816   -2.0385856023    1.0767531762
H        1.5857563190   -2.2699119803    1.0544542919
H        1.0040610527   -0.3201382654    2.5197699249
H        1.9136228367    0.2232896595    1.1058597834
H       -1.0799183461    0.3926697497    1.6366698364
H        1.7849175480    5.2804534941    0.5000763715
H        1.9759052804    4.4063319157    2.0540349728
H        0.3909003677    5.0843394794    1.6089462891
H       -1.1836920377    1.3112030382   -0.7106730261
22   
torsion grid (-15,)
C       -0.0952231311   -0.3176602569   -1.2660968249
C        0.2571379695    2.1152038110    1.5674993608
C        0.7880097328   -1.4434392501   -0.7560973493
C        0.7096364041   -1.6266816472    0.7616058200
C        0.9375846095   -0.2852141448    1.4558524099
C       -0.1543359205    0.7291504009    1.0615784093
C        1.2050821885    4.6955753394    1.2056599714
N       -0.3778427611    0.7046565378   -0.3828135446
O       -0.5257659186   -0.2873594927   -2.4156272712
S        0.2137393274    2.4711217838    3.1724733060
S        0.7580550018    3.1946701824    0.2843660209
H        0.5002484499   -2.3439240867   -1.3030047421
H        1.8166119483   -1.2053517844   -1.0547332485
H       -0.2718080956   -2.0294774587    1.0417012198
H        1.4578600205   -2.3531488656    1.0951228710
H        0.9270724389   -0.3802898590    2.5431868327
H        1.9165502409    0.1173078210    1.1696704562
H       -1.0787284507    0.4676062459    1.5912257884
H        1.5166536334    5.4245616215    0.4540168689
H        2.0236692415    4.4897207251    1.8972475607
H        0.3455089461    5.0694024316    1.7646800428
H       -1.0669636780    1.3518303110   -0.7548527295
22   
torsion grid (0,)
C       -0.0234923448   -0.3265685446   -1.2827243997
C        0.4080724592    2.1151591440    1.5487720217
C        0.7675067482   -1.5036126983   -0.7406320992
C        0.6184197669   -1.6688469252    0.7735615153
C        0.9208296078   -0.3428479451    1.4681199219
C       -0.0752108248    0.7505894209    1.0339780815
C        1.0844842639    4.7891225156    1.2221897433
N       -0.2564809053    0.7243266934   -0.4172240402
O       -0.4275852003   -0.2797363742   -2.4413281579
S        0.6105941514    2.3871909510    3.1589243335
S        0.6247009951    3.3043209563    0.2831858389
H        0.4435993443   -2.3865985763   -1.2956758376
H        1.8202852606   -1.3329952060   -0.9985536363
H       -0.4002391007   -1.9959123388    1.0176931166
H        1.2973183696   -2.4460443923    1.1393884957
H        0.8710979650   -0.4303209151    2.5542156329
H        1.9359620745   -0.0159750562    1.2136222536
H       -1.0353632944    0.5648255319    1.5337700618
H        1.2112024023    5.5814777317    0.4808281814
H        2.0172946197    4.6233394813    1.7633501700
H        0.2969974456    5.0510197345    1.9309977345
H       -0.9072416061    1.3963471768   -0.8137977030
22   
torsion grid (15,)
C        0.0494011472   -0.3503198860   -1.3036112150
C        0.5574236749    2.1246545764    1.5055318676
C        0.7300391512   -1.5748867377   -0.7197732491
C        0.5254931412   -1.6961397429    0.7917020614
C        0.9134287807   -0.3852150448    1.4724177524
C        0.0233288970    0.7738718534    0.9913953165
C        0.9515779335    4.8733304635    1.2700290772
N       -0.1166777234    0.7355377712   -0.4658885627
O       -0.3244268362   -0.2960002886   -2.4721928434
S        1.0212538147    2.3279694544    3.0708182976
S        0.4749398158    3.4061488339    0.3140592499
H        0.3516101436   -2.4401305795   -1.2682569771
H        1.7998240116   -1.4937051271   -0.9498402435
H       -0.5226478488   -1.9372736900    1.0103873721
H        1.1291806486   -2.5170261029    1.1921475505
H        0.8289703050   -0.4532282050    2.5571648291
H        1.9582842625   -0.1448314533    1.2448803566
H       -0.9673377299    0.6662791277    1.4578894650
H        0.8947883830    5.7119229377    0.5721472149
H        1.9684219227    4.7641031175    1.6498214174
H        0.2662024796    5.0231025458    2.1060146959
H       -0.7103261768    1.4400965416   -0.8941822045
22   
torsion grid (30,)
C        0.1289958707   -0.3750576307   -1.3263073864
C        0.6538728344    2.1390719480    1.4582347715
C        0.6810359771   -1.6395414535   -0.6933707961
C        0.4415569376   -1.7036020785    0.8161564219
C        0.9090225728   -0.4060369416    1.4744253818
C        0.1062812030    0.7899191955    0.9470217285
C        0.8302977001    4.9280444896    1.3315069472
N        0.0159262782    0.7357361550   -0.5155894190
O       -0.1791144657   -0.3126739430   -2.5140514409
S        1.4047259558    2.2966811150    2.9117077796
S        0.2565469450    3.4806399158    0.4005157937
H        0.2377313962   -2.4829661446   -1.2272861875
H        1.7573902340   -1.6594304493   -0.9055074214
H       -0.6250028556   -1.8632496142    1.0204743004
H        0.9764638723   -2.5551817992    1.2488992550
H        0.7990042027   -0.4473400278    2.5582797539
H        1.9719500220   -0.2419528425    1.2659545401
H       -0.9084615107    0.7323517521    1.3740637983
H        0.5842010346    5.7935254008    0.7120357694
H        1.9077537129    4.8699295267    1.4922089440
H        0.3207010597    4.9882152754    2.2944411291
H       -0.4681267797    1.4911785163   -0.9911524344
22   
torsion grid (45,)
C        0.2191411291   -0.3765470114   -1.3405403766
C        0.6936666042    2.1462622618    1.4382531173
C        0.6270504048   -1.6779276085   -0.6701853810
C        0.3724035842   -1.6999628806    0.8387386374
C        0.9035197673   -0.4188798633    1.4842772288
C        0.1613629702    0.7936705179    0.9227153745
C        0.7267700071    4.9479054228    1.3736885456
N        0.1454085334    0.7453151588   -0.5447880731
O        0.0050109385   -0.3012805525   -2.5484739002
S        1.7307550612    2.2941833431    2.7011173343
S       -0.0107790444    3.4999119731    0.5668915450
H        0.1068680448   -2.4831975861   -1.1940958473
H        1.6966924283   -1.8098225407   -0.8755107238
H       -0.7030984570   -1.7960427761    1.0358785073
H        0.8536350010   -2.5739638645    1.2893669122
H        0.7752121133   -0.4387534828    2.5678373970
H        1.9754287146   -0.3112318405    1.2889909496
H       -0.8768298751    0.7494311559    1.2941287288
H        0.3175635524    5.8168271351    0.8534499754
H        1.8130517901    4.9219214876    1.2752966194
H        0.4555637394    4.9722208651    2.4300844713
H       -0.1856448097    1.5582210513   -1.0544598131
22   
torsion grid (60,)
C        0.3086000335   -0.3618291350   -1.3408634100
C        0.7314524969    2.1402075146    1.4246371929
C        0.6251365524   -1.6807784713   -0.6530141243
C        0.3082572397   -1.6970438440    0.8452872706
C        0.8591944104   -0.4350041144    1.5128714495
C        0.1727434923    0.7944931167    0.9247153792
C        0.6583442491    4.9427516658    1.3900073452
N        0.2230267311    0.7560418754   -0.5438311731
O        0.1780564998   -0.2752099722   -2.5601386792
S        2.0285130977    2.3004334172    2.4130036156
S       -0.2196115504    3.4743134115    0.7849710815
H        0.0931078295   -2.4621087170   -1.2008679549
H        1.6954686935   -1.8596989107   -0.8137768646
H       -0.7768669405   -1.7559101896    0.9992750874
H        0.7407803122   -2.5885873952    1.3106867617
H        0.6912621391   -0.4479171670    2.5926170098
H        1.9392765928   -0.3626598017    1.3552860662
H       -0.8818336862    0.7732389796    1.2467165345
H        0.1110762581    5.8016683503    0.9952994156
H        1.6862452373    4.9454704504    1.0239003970
H        0.6585541169    4.9599981233    2.4807620946
H       -0.0280316076    1.5963911788   -1.0548832663
22   
torsion grid (75,)
C        0.3798052034   -0.3762102856   -1.3438146445
C        0.7835477428    2.1395846227    1.3674878897
C        0.6634170588   -1.6872063114   -0.6268088065
C        0.2515303914   -1.6893329048    0.8485135630
C        0.7865091749   -0.4326929156    1.5379502180
C        0.1642844298    0.8077076215    0.9027001793
C        0.6244190850    4.9370767290    1.4457326907
N        0.2604335716    0.7491043059   -0.5618428531
O        0.2938269989   -0.3034228423   -2.5677314606
S        2.2739054718    2.3057127390    2.0262227620
S       -0.3272941323    3.4531195394    1.0133364157
H        0.1694727119   -2.4759433792   -1.1990438272
H        1.7426102932   -1.8623331109   -0.7171068425
H       -0.8422602688   -1.7265247856    0.9321434744
H        0.6361151859   -2.5858651411    1.3453604562
H        0.5535859730   -0.4285675638    2.6065805857
H        1.8746227246   -0.3842512904    1.4427285023
H       -0.8999195205    0.8350807389    1.1869846111
H       -0.0213579390    5.7875952025    1.2164707898
H        1.5400976240    4.9835638956    0.8539040605
H        0.8766472495    4.9265675455    2.5071357744
H        0.0187531677    1.5854979562   -1.0842423093
22   
torsion grid (90,)
C        0.4348684473   -0.4395070387   -1.3622660903
C        0.8213307116    2.1604168900    1.2479074489
C        0.6928394749   -1.7197833772   -0.5834129531
C        0.2118591905   -1.6669501108    0.8700170445
C        0.7241327942   -0.3898281382    1.5376636975
C        0.1553042636    0.8372472458    0.8257728213
C        0.6047240628    4.9330263164    1.5697028456
N        0.2875249100    0.7145336582   -0.6289890500
O        0.3875304203   -0.4156609366   -2.5901816375
S        2.4145539741    2.3370918758    1.5864666594
S       -0.3700079408    3.4447961502    1.2086869403
H        0.2293724899   -2.5330853771   -1.1465693287
H        1.7759132077   -1.8911661149   -0.6154873183
H       -0.8847857655   -1.6960812884    0.9036602589
H        0.5676274388   -2.5464617784    1.4164903665
H        0.4325425499   -0.3413471571    2.5912321809
H        1.8162656519   -0.3557578641    1.4973427513
H       -0.9140930089    0.9099452456    1.0780339484
H       -0.0968033565    5.7698261092    1.5459630630
H        1.3824961004    5.0661165724    0.8157578592
H        1.0651454603    4.8504194715    2.5555421242
H        0.0644111210    1.5304700119   -1.1906724030
22   
torsion grid (105,)
C        0.4933993517   -0.5297395445   -1.3852932991
C        0.8230760457    2.2005781153    1.0873695907
C        0.7072248863   -1.7655889718   -0.5246353083
C        0.1799241960   -1.6243678900    0.9065253730
C        0.6800393277   -0.3118588236    1.5112115615
C        0.1374512886    0.8754456772    0.7103897878
C        0.6011494156    4.9096337523    1.7368314661
N        0.2916044446    0.6593320716   -0.7274253232
O        0.5175411471   -0.5746035947   -2.6134366299
S        2.4479918994    2.4111955372    1.1333118236
S       -0.3869132625    3.4302136319    1.3760541561
H        0.2502497917   -2.6042384477   -1.0552423862
H        1.7879608068   -1.9526006285   -0.5124436699
H       -0.9173381007   -1.6445928840    0.9068456540
H        0.5115410974   -2.4711200073    1.5163884118
H        0.3611133174   -0.1991256906    2.5520534200
H        1.7733010256   -0.2832574985    1.4937615549
H       -0.9349216695    0.9742879871    0.9391449267
H       -0.1120215419    5.7150579195    1.9255898160
H        1.2363730168    5.1550949128    0.8840019829
H        1.2250755399    4.7397011385    2.6159674968
H        0.1289301738    1.4488136030   -1.3443091767
22   
torsion grid (120,)
C        0.5390728091   -0.6263994961   -1.4063683638
C        0.8025986628    2.2509781653    0.9219042076
C        0.7119002496   -1.8044197592   -0.4590527162
C        0.1531981644   -1.5641617258    0.9468331181
C        0.6462194248   -0.2151249332    1.4719120378
C        0.1272781235    0.9160404700    0.5743654369
C        0.6074189035    4.8551223900    1.9095773823
N        0.3312069792    0.6052207136   -0.8358129521
O        0.6056935972   -0.7552715831   -2.6270417108
S        2.4078189922    2.5290252597    0.7361837214
S       -0.3867748151    3.3899399999    1.5091631024
H        0.2585163445   -2.6720908534   -0.9440255990
H        1.7897381309   -2.0011333715   -0.4071905094
H       -0.9438437034   -1.5785577830    0.9250005078
H        0.4665515384   -2.3688398073    1.6201620152
H        0.3038643248   -0.0294419949    2.4945806420
H        1.7402354283   -0.1901104029    1.4745947473
H       -0.9523727073    1.0234863670    0.7627445836
H       -0.0891715301    5.5996125248    2.3012548299
H        1.1015764349    5.2307994066    1.0120115158
H        1.3601518571    4.6058021386    2.6595213794
H        0.2218749880    1.3577846400   -1.5076561474
22   
torsion grid (135,)
C       -0.9556510662   -0.7335496414   -0.7055419429
C        0.4780722617    2.2947822798    0.8891005995
C        0.2428234516   -1.6715300369   -0.7183454145
C        1.2147255703   -1.4681496482    0.4475366840
C        1.5198996621    0.0216652880    0.6094089570
C        0.2296195529    0.7830897240    0.9554676108
C        1.1006680738    4.6792763238    2.1997565801
N       -0.8591245396    0.3927062807    0.0727609456
O       -1.9622352371   -0.9567205620   -1.3749118878
S        0.5695116261    3.1381745304   -0.5140226434
S        0.6751985550    2.9406106749    2.5036436925
H       -0.1505127261   -2.6901907909   -0.7576334512
H        0.7554391938   -1.4978224450   -1.6722306137
H        0.7810848716   -1.8611459727    1.3756761011
H        2.1401899022   -2.0259032796    0.2698317738
H        2.2522083693    0.2006237704    1.4020309050
H        1.9275766753    0.4248754182   -0.3233927379
H       -0.0385830805    0.5297429784    1.9930744110
H        1.2504347879    5.1318620483    3.1824514003
H        0.2869646692    5.1782299684    1.6709920069
H        2.0140167290    4.7467940634    1.6061819184
H       -1.6695751049    1.0008393933    0.0208263345
22   
torsion grid (150,)
C       -0.9147292058   -0.7581957142   -0.7730100169
C        0.3498108270    2.3057475547    0.9086983901
C        0.2964328081   -1.6777519523   -0.7070094005
C        1.2137895412   -1.4314398045    0.4937350473
C        1.4653048774    0.0680942870    0.6581274279
C        0.1350540749    0.7890225503    0.9479506751
C        1.2216776748    4.6319455142    2.1850156490
N       -0.8894311500    0.3697831095    0.0076686374
O       -1.8699756783   -0.9977874899   -1.5086914029
S        0.1698568082    3.2220738738   -0.4391573859
S        0.8627041526    2.8774917713    2.4846117474
H       -0.0792577994   -2.7034821338   -0.7370869021
H        0.8461977928   -1.5210935233   -1.6429298185
H        0.7565895849   -1.8295249573    1.4082962296
H        2.1632614264   -1.9602142728    0.3592240667
H        2.1602996827    0.2710734659    1.4769863685
H        1.8966222206    0.4814344017   -0.2603701395
H       -0.1731737860    0.5215570662    1.9708254423
H        1.5596258530    5.0375701125    3.1412108600
H        0.3209435785    5.1484784097    1.8499246047
H        2.0027593451    4.7359010738    1.4301344031
H       -1.6916104310    0.9775770229   -0.1214932540
22   
torsion grid (165,)
C       -0.8709945643   -0.7614040474   -0.8328751731
C        0.2797829676    2.3133590610    0.9345113359
C        0.3316893613   -1.6846851288   -0.7009604759
C        1.1949102281   -1.4269294949    0.5361245217
C        1.4338069888    0.0737269568    0.7085252347
C        0.0879765728    0.7905885646    0.9366000953
C        1.2949276356    4.6148716738    2.1552802361
N       -0.8824267412    0.3710034948   -0.0582320367
O       -1.7846643756   -1.0006140833   -1.6198890198
S       -0.2062098720    3.3042790032   -0.2789465581
S        1.1091843120    2.8247101238    2.3954117088
H       -0.0446123084   -2.7099556361   -0.7374056402
H        0.9230950653   -1.5392294900   -1.6130689581
H        0.7003910251   -1.8218854799    1.4325007244
H        2.1515965289   -1.9520760609    0.4461350572
H        2.0926832440    0.2732787284    1.5566234870
H        1.9079603313    0.4896939503   -0.1880758160
H       -0.2698842114    0.5156064974    1.9412506131
H        1.8091883577    4.9823470719    3.0462307260
H        0.3163165893    5.0875128121    2.0590115962
H        1.8883694002    4.8193592883    1.2629216837
H       -1.6603343376    0.9947025603   -0.2490121131
22   
torsion grid (180,)
C       -0.8223744923   -0.7501710808   -0.8919102263
C        0.2548491670    2.3250432337    0.9440481104
C        0.3529645636   -1.6968434868   -0.6950249296
C        1.1611866506   -1.4427777124    0.5790631129
C        1.4205599851    0.0546488055    0.7527289414
C        0.0808917128    0.7971355351    0.9104341618
C        1.3322913279    4.6185891683    2.1259740614
N       -0.8460050418    0.3905991310   -0.1306574756
O       -1.7014172267   -0.9780072065   -1.7206631794
S       -0.5430241107    3.3638651706   -0.0452543041
S        1.3776567258    2.8051224575    2.2065671074
H       -0.0428186748   -2.7145257169   -0.7381401650
H        0.9895407588   -1.5745617665   -1.5796864993
H        0.6164330330   -1.8196831502    1.4538872723
H        2.1106810517   -1.9867186285    0.5402564908
H        2.0447522517    0.2382420484    1.6301918740
H        1.9493381460    0.4553475136   -0.1199707200
H       -0.3325515895    0.5301752688    1.8967039422
H        2.0076086904    4.9656063967    2.9114809847
H        0.3195365411    4.9821523970    2.3070230866
H        1.6757324971    4.9650080759    1.1503081685
H       -1.6030797693    1.0300139118   -0.3546985863
