21   
torsion grid (-165,)
C       -0.0303422046   -0.9858765541    2.1072894969
C       -0.0603081220   -1.3949568610    0.6271126771
C        0.6868202155   -2.7198219584    0.4212222179
C        0.5269539993   -0.2966917370   -0.2800449438
C       -0.3086361421    0.9640256945   -0.3530580955
C       -0.1678104749    1.9268005910   -1.2723722549
C       -0.9813297278    3.1912143543   -1.3329370269
H       -0.5679627436   -0.0498767775    2.2892528772
H       -0.4858418648   -1.7574351901    2.7378748239
H        1.0036258794   -0.8447408635    2.4461510382
H       -1.1088521937   -1.5479399482    0.3345520658
H        0.6222840232   -3.0573639515   -0.6192832426
H        0.2761517087   -3.5114046040    1.0579109320
H        1.7495423343   -2.6104065429    0.6714336585
H        1.5330264628   -0.0515037199    0.0915710819
H        0.6684896760   -0.6963551940   -1.2916372094
H       -1.0653502421    1.0999481931    0.4214672126
H        0.5892138025    1.8033586407   -2.0505185208
H       -0.3407773405    4.0788329779   -1.2527570473
H       -1.7183927755    3.2313336255   -0.5246879468
H       -1.5172203977    3.2739721347   -2.2871042686
21   
torsion grid (-150,)
C       -0.1210661357   -1.0223621910    2.0884494482
C       -0.0672504223   -1.3700958792    0.5934525474
C        0.6890562588   -2.6887373966    0.3783275141
C        0.5768007472   -0.2425103739   -0.2394562706
C       -0.2260275402    1.0347820812   -0.3018152658
C       -0.2213062831    1.8935978297   -1.3291680358
C       -0.9813985798    3.1913984644   -1.3763231518
H       -0.6890580017   -0.1072309978    2.2824800522
H       -0.5922343648   -1.8290248435    2.6608808049
H        0.8907227026   -0.8771682663    2.4874021679
H       -1.0974210921   -1.5071205802    0.2359207315
H        0.6884868334   -2.9819497781   -0.6774949190
H        0.2381314347   -3.5045828766    0.9542536661
H        1.7344815475   -2.5945944380    0.6981124864
H        1.5645260316   -0.0287631345    0.1979301287
H        0.7670317219   -0.5992392458   -1.2587088395
H       -0.8112332539    1.2938313636    0.5818700945
H        0.3697439178    1.6487547143   -2.2146464101
H       -0.3020924626    4.0434118045   -1.5073855300
H       -1.5541361650    3.3533116847   -0.4577253488
H       -1.6804682939    3.2120904837   -2.2220424318
21   
torsion grid (-135,)
C       -0.2074051004   -1.0491181763    2.0348203556
C       -0.0595417920   -1.3601829712    0.5383311307
C        0.7023430755   -2.6780326428    0.3375931429
C        0.6430939175   -0.2188267836   -0.2290590880
C       -0.1103690451    1.0854349046   -0.2591388610
C       -0.2787165113    1.8478096911   -1.3473723815
C       -0.9939845465    3.1713438128   -1.3762881487
H       -0.8103639164   -0.1538174187    2.2144393315
H       -0.6906851441   -1.8804562885    2.5599147061
H        0.7752501199   -0.8901114325    2.4966993482
H       -1.0654209705   -1.4796384977    0.1126574643
H        0.7768433470   -2.9389937433   -0.7240918145
H        0.2050993693   -3.5070555555    0.8534340106
H        1.7222887824   -2.6029850914    0.7352142116
H        1.6254061466   -0.0566219653    0.2420062810
H        0.8450263407   -0.5407244095   -1.2576142848
H       -0.5047536049    1.4490220117    0.6909756564
H        0.1238985385    1.4962958982   -2.2998719326
H       -0.3277654024    3.9736809614   -1.7181000560
H       -1.3724011347    3.4439608430   -0.3861080308
H       -1.8430624294    3.1484760276   -2.0711918306
21   
torsion grid (-120,)
C       -0.2978827434   -1.0348961046    1.9920645385
C       -0.0484490522   -1.3432728427    0.5088809420
C        0.7011906936   -2.6738705273    0.3526272795
C        0.7257580452   -0.2102678866   -0.2026276840
C        0.0199172583    1.1191460483   -0.2222653369
C       -0.3332235827    1.7817815724   -1.3314876235
C       -1.0307654049    3.1146470549   -1.3611643417
H       -0.9081576780   -0.1368201237    2.1278152980
H       -0.8203260255   -1.8648573595    2.4806232653
H        0.6506406252   -0.8812427843    2.5223442009
H       -1.0233213226   -1.4386544864    0.0115793453
H        0.8542485528   -2.9251834407   -0.7030216904
H        0.1482047401   -3.4977875999    0.8174316187
H        1.6877589988   -2.6243562035    0.8302913426
H        1.6987789776   -0.0981387616    0.2999487031
H        0.9414862192   -0.5171947505   -1.2330456947
H       -0.2015655633    1.5734790623    0.7448472080
H       -0.1056345303    1.3344819808   -2.3015203360
H       -0.4300282162    3.8642446075   -1.8917399515
H       -1.2244344717    3.4882463426   -0.3508048661
H       -1.9904669131    3.0476559675   -1.8892471360
21   
torsion grid (-105,)
C       -0.3680982048   -0.9953898870    1.9371752975
C       -0.0228935402   -1.3052904378    0.4739700707
C        0.6990499972   -2.6548257682    0.3590482967
C        0.8262612089   -0.1866876082   -0.1737771284
C        0.1597152799    1.1638368790   -0.1929555859
C       -0.3766193576    1.7342494299   -1.2797863504
C       -1.0730371470    3.0675788668   -1.3067694321
H       -0.9589504560   -0.0788950106    2.0298586334
H       -0.9481705146   -1.8107154190    2.3836265482
H        0.5441930654   -0.8709346184    2.5345892352
H       -0.9624350878   -1.3674923056   -0.0915732559
H        0.9266680488   -2.8993637540   -0.6847612494
H        0.0883772382   -3.4670938330    0.7690059452
H        1.6463904044   -2.6393851512    0.9123400378
H        1.7811451982   -0.1199113553    0.3677310560
H        1.0688884862   -0.4829165219   -1.2014745035
H        0.0929169420    1.6944086523    0.7584097768
H       -0.3090270494    1.2052964431   -2.2331082072
H       -0.5754281793    3.7611017638   -1.9964118371
H       -1.0918124584    3.5297374148   -0.3148268409
H       -2.1090612036    2.9656375848   -1.6542712281
21   
torsion grid (-90,)
C       -0.4703080459   -0.7775712235    1.7369171084
C       -0.0415310912   -1.0911183078    0.2970942888
C        0.6697432090   -2.4485263043    0.2200131213
C        0.8546001801    0.0227365328   -0.2935867618
C        0.1948916641    1.3791056838   -0.3366971180
C       -0.5264887397    1.8393023302   -1.3672402503
C       -1.2421624660    3.1618965459   -1.4045005338
H       -1.0372004325    0.1570174171    1.7930013406
H       -1.1014365351   -1.5765216631    2.1418781493
H        0.4053409714   -0.6815191953    2.3916828455
H       -0.9461662059   -1.1382582712   -0.3239470853
H        0.9545723465   -2.6933649774   -0.8096445643
H        0.0267585877   -3.2543459342    0.5916076269
H        1.5835106100   -2.4460426562    0.8272871584
H        1.7819254274    0.0770546021    0.2927572303
H        1.1439100218   -0.2719654323   -1.3097914580
H        0.2704801560    1.9960062136    0.5603834202
H       -0.6081056572    1.2204558466   -2.2640001289
H       -0.8810566155    3.7862101859   -2.2315670389
H       -1.1028488487    3.7183237950   -0.4723509578
H       -2.3197741172    3.0237449276   -1.5602918610
21   
torsion grid (-75,)
C       -0.6030785532   -0.6091379686    1.6321618410
C       -0.0756117239   -0.9407355093    0.2299166822
C        0.6133675139   -2.3114208009    0.2105385571
C        0.8809658992    0.1558668539   -0.2932076461
C        0.2414678552    1.5216131977   -0.4129843868
C       -0.6167160892    1.8729059391   -1.3795269937
C       -1.3108639113    3.2032393193   -1.4831553946
H       -1.1324582874    0.3488497348    1.6425814738
H       -1.2959028522   -1.3808973891    1.9858735306
H        0.2222377241   -0.5474017280    2.3530624499
H       -0.9329532954   -0.9751852040   -0.4555218051
H        0.9641860993   -2.5691262098   -0.7953761180
H       -0.0689159835   -3.1023977083    0.5417767725
H        1.4827531454   -2.3215965594    0.8797284090
H        1.7540205119    0.2102068104    0.3695031957
H        1.2574034386   -0.1582790199   -1.2748596491
H        0.4529419777    2.2427289484    0.3781608362
H       -0.8384570378    1.1507842441   -2.1691612834
H       -1.0662095311    3.7072486770   -2.4267709092
H       -1.0279902213    3.8666505089   -0.6598463516
H       -2.4016388456    3.0826809756   -1.4632913766
21   
torsion grid (-60,)
C       -0.6236327308   -0.7381011876    1.6191711592
C       -0.0241971603   -1.0435502901    0.2401375815
C        0.6553531330   -2.4191467300    0.2273276568
C        0.9686284617    0.0553521935   -0.2002211449
C        0.3568079194    1.4328482582   -0.3629144874
C       -0.6339723391    1.7351784483   -1.2120271120
C       -1.2621579655    3.0938983750   -1.3601205992
H       -1.1308555103    0.2316114380    1.6256143588
H       -1.3512400564   -1.5033373520    1.9120472205
H        0.1612087258   -0.7145016432    2.3860125053
H       -0.8443736598   -1.0615432922   -0.4895869525
H        1.0507088134   -2.6615467263   -0.7657794061
H       -0.0468831879   -3.2105337197    0.5125207724
H        1.4927340728   -2.4479532298    0.9357177413
H        1.7851610853    0.1027392650    0.5309353777
H        1.4291999342   -0.2537495404   -1.1478023105
H        0.7406075729    2.2258133716    0.2807147196
H       -1.0311819113    0.9500131495   -1.8593226978
H       -1.1559154095    3.4712189214   -2.3851884129
H       -0.8058932065    3.8211950246   -0.6812276567
H       -2.3383069611    3.0581375756   -1.1471167260
21   
torsion grid (-45,)
C        1.3382372074   -0.7512728602    1.3038703569
C        0.2038435428   -1.3449619791    0.4579626045
C        0.2676101884   -2.8785134179    0.4542566097
C        0.2332119409   -0.8048271104   -0.9870778008
C        0.0214135276    0.6884256170   -1.1420655761
C       -0.9132233554    1.4177950199   -0.5189264631
C       -1.1196739866    2.8959665185   -0.7087805650
H        1.2896635887    0.3413133564    1.3256009022
H        1.2918843200   -1.1150724827    2.3364866452
H        2.3152487460   -1.0375005270    0.8939269346
H       -0.7506948212   -1.0517543430    0.9140783127
H       -0.5643482146   -3.3129587166   -0.1117396283
H        0.2270151749   -3.2791226097    1.4733165011
H        1.2013194468   -3.2293259783   -0.0029528518
H        1.1986019545   -1.0745658200   -1.4344534761
H       -0.5246601817   -1.3373777257   -1.5785095362
H        0.6792069943    1.1997821079   -1.8469199693
H       -1.5844090412    0.9295776648    0.1898583440
H       -2.1338546155    3.1115250060   -1.0686391202
H       -0.4083725137    3.3100802732   -1.4303332057
H       -0.9990663355    3.4383093170    0.2377977530
21   
torsion grid (-30,)
C        1.2673072178   -0.4853629579    1.4462060491
C        0.2309852585   -1.1064304123    0.4991882739
C        0.3561151212   -2.6367483062    0.4845877099
C        0.3617249484   -0.5504702088   -0.9313157106
C        0.0807276468    0.9241033668   -1.1242871383
C       -0.7613099107    1.6814119179   -0.4094791082
C       -1.0441060847    3.1354202084   -0.6748723208
H        1.1867915939    0.6048008060    1.4729014550
H        1.1419610586   -0.8620529636    2.4675693901
H        2.2844560806   -0.7384245389    1.1211327554
H       -0.7704769291   -0.8616626528    0.8768902961
H       -0.4111820881   -3.0954101557   -0.1494509370
H        0.2517334902   -3.0521804567    1.4930797988
H        1.3359856248   -2.9447982053    0.0987564720
H        1.3796518424   -0.7611741813   -1.2880824661
H       -0.3009876960   -1.1200850317   -1.5991561161
H        0.5892067629    1.3905320309   -1.9705254000
H       -1.2867563507    1.2421630186    0.4393080865
H       -2.1108231329    3.3011735962   -0.8728231683
H       -0.4782570305    3.5032453656   -1.5366113698
H       -0.7843538264    3.7554195996    0.1927495487
21   
torsion grid (-15,)
C        1.1914012064   -0.7897795192    1.3640646399
C        0.1511668687   -1.3919623732    0.4074631100
C        0.2628688729   -2.9235588455    0.3877170593
C        0.2940043644   -0.8311060162   -1.0180242810
C       -0.0603323263    0.6215124011   -1.2358947862
C       -0.7441055870    1.4272425048   -0.4133701064
C       -1.0955458419    2.8595394348   -0.7141436811
H        1.1429173757    0.3022208813    1.3845046187
H        1.0447951189   -1.1568376196    2.3861306609
H        2.2049624050   -1.0719332993    1.0524752806
H       -0.8505211181   -1.1393838276    0.7795252965
H       -0.5120810081   -3.3733796649   -0.2432040057
H        0.1602535069   -3.3408660237    1.3956471169
H        1.2378376980   -3.2393147529   -0.0042168319
H        1.3294665268   -0.9912607972   -1.3532545860
H       -0.3217739267   -1.4329690121   -1.7030277006
H        0.2608857836    1.0308148336   -2.1963672790
H       -1.0811420257    1.0490470176    0.5517001279
H       -2.1821997594    3.0124594830   -0.6970004267
H       -0.7256812454    3.1656100946   -1.6978030968
H       -0.6696311237    3.5384492250    0.0357116396
21   
torsion grid (0,)
C        1.1589510941   -0.8031931818    1.4034246446
C        0.1457511388   -1.3750539801    0.3985098090
C        0.2412697868   -2.9075969759    0.3628571277
C        0.3479777932   -0.7940013197   -1.0116679800
C       -0.1061118203    0.6250917276   -1.2573723474
C       -0.6772682437    1.4699044058   -0.3892964728
C       -1.1073489906    2.8741274481   -0.7198599318
H        1.1509790892    0.2899330109    1.4192662964
H        0.9516252702   -1.1597190819    2.4187319225
H        2.1755367682   -1.1222825412    1.1416022550
H       -0.8661332665   -1.1128928526    0.7341331298
H       -0.5252454606   -3.3410384862   -0.2893311159
H        0.1130022664   -3.3355570202    1.3634442710
H        1.2207687331   -3.2296030423   -0.0123078329
H        1.4120257417   -0.8737639753   -1.2816844090
H       -0.1745970768   -1.4347799292   -1.7373274614
H        0.0702436309    0.9849994711   -2.2737924750
H       -0.8665223543    1.1455511291    0.6334022390
H       -2.1839101205    3.0084579087   -0.5541726951
H       -0.8908857851    3.1254981979   -1.7629434370
H       -0.5961322022    3.6055327502   -0.0809017584
21   
torsion grid (15,)
C        1.1498353316   -0.8580035827    1.4419293757
C        0.1542672216   -1.3938826048    0.3990250066
C        0.2294875478   -2.9268998121    0.3407215942
C        0.4009166722   -0.7886181500   -0.9964423710
C       -0.1568773608    0.5887890221   -1.2699488196
C       -0.6100172616    1.4873236260   -0.3860156903
C       -1.1234894032    2.8558754651   -0.7460817509
H        1.1689524701    0.2347368626    1.4734724473
H        0.9045623812   -1.2219086454    2.4461536387
H        2.1662376164   -1.1972184787    1.2060243395
H       -0.8614260893   -1.1190356254    0.7112542810
H       -0.5311357316   -3.3389421722   -0.3317998423
H        0.0774271253   -3.3688364629    1.3319563246
H        1.2110807270   -3.2565312300   -0.0221476034
H        1.4816589835   -0.7822111210   -1.2048674758
H       -0.0263075788   -1.4645184156   -1.7507563712
H       -0.1339972336    0.8829233838   -2.3219766806
H       -0.6422652880    1.2339214553    0.6728688845
H       -2.1669888785    2.9843193052   -0.4313054637
H       -1.0700406376    3.0337792167   -1.8247716938
H       -0.5434210622    3.6403021386   -0.2433190955
21   
torsion grid (30,)
C        1.1410575488   -0.9358104759    1.5006154098
C        0.1694832857   -1.4362586841    0.4180783526
C        0.2380268032   -2.9680298325    0.3255778317
C        0.4528023381   -0.7975937544   -0.9602553392
C       -0.1925944659    0.5398672685   -1.2532459387
C       -0.5136732286    1.5079441745   -0.3846896289
C       -1.1145901179    2.8338925796   -0.7677979874
H        1.1494788986    0.1544812657    1.5817317595
H        0.8811755265   -1.3443537441    2.4838153881
H        2.1652129278   -1.2544344142    1.2694321627
H       -0.8509503984   -1.1592235318    0.7111573371
H       -0.5057827231   -3.3592196190   -0.3774435882
H        0.0559429007   -3.4324701986    1.3014015403
H        1.2275545389   -3.2948987330   -0.0177986094
H        1.5397803620   -0.7161660632   -1.1093027962
H        0.1123556790   -1.4938117443   -1.7378022707
H       -0.3496053752    0.7467974559   -2.3142625511
H       -0.3640693756    1.3476846343    0.6822294880
H       -2.0939713012    2.9786574246   -0.2941441867
H       -1.2458208890    2.9167662693   -1.8513222230
H       -0.4785836817    3.6653440318   -0.4379660815
21   
torsion grid (45,)
C        1.0099306350   -0.9222055707    1.5224718580
C        0.1226062075   -1.4460629499    0.3817134215
C        0.2882520263   -2.9688614012    0.2574573949
C        0.4268034192   -0.7644727288   -0.9757776344
C       -0.2714701519    0.5501965296   -1.2677233990
C       -0.4280769032    1.6021332560   -0.4526743233
C       -1.1275883112    2.8791843651   -0.8343828947
H        0.9065030605    0.1548162017    1.6748082752
H        0.7612488280   -1.4154631501    2.4690394578
H        2.0669187041   -1.1255534661    1.3095017818
H       -0.9245558601   -1.2356298191    0.6330129547
H       -0.3948375774   -3.3852518690   -0.4912033748
H        0.0871648170   -3.4688792654    1.2116667103
H        1.3114980628   -3.2272113014   -0.0430367800
H        1.5146516278   -0.6372933904   -1.0746674777
H        0.1460719758   -1.4609313767   -1.7742779613
H       -0.6655214622    0.6471240041   -2.2815058032
H       -0.0433338625    1.5615928340    0.5650631731
H       -1.9885363700    3.0704045118   -0.1810890101
H       -1.4864764670    2.8463174309   -1.8679389255
H       -0.4573857523    3.7424905785   -0.7339253628
21   
torsion grid (60,)
C        0.6621603362   -0.8210270647    1.5290561114
C        0.0298111367   -1.5448652929    0.3335295642
C        0.5426375271   -2.9922976023    0.2605918454
C        0.2803574383   -0.8478320454   -1.0268137786
C       -0.3738972629    0.5013556321   -1.2526922236
C       -0.2037289925    1.6245060386   -0.5409508607
C       -0.9342681759    2.9151573256   -0.7966505718
H        0.1969912572    0.1496932375    1.7133820149
H        0.5465610334   -1.4176065136    2.4410188719
H        1.7362821073   -0.6621866888    1.3694370467
H       -1.0564458978   -1.5777654322    0.4958310001
H        0.0651114961   -3.5470716462   -0.5548189622
H        0.3441766574   -3.5300295953    1.1942933460
H        1.6262430058   -3.0140385591    0.0891475083
H        1.3690232658   -0.7579969455   -1.1576371517
H       -0.0563870433   -1.5249578977   -1.8191375587
H       -1.1116694557    0.5350059715   -2.0570058788
H        0.5317712629    1.6477397222    0.2619328084
H       -1.4988813901    3.2315180011    0.0898364786
H       -1.6377805526    2.8194857643   -1.6296988714
H       -0.2350551834    3.7278516009   -1.0314949268
21   
torsion grid (75,)
C        0.5344170740   -0.7744155459    1.5394187033
C        0.0130500559   -1.5495261978    0.3242864797
C        0.6169622777   -2.9616813224    0.2860045446
C        0.2908423525   -0.8292943536   -1.0198198698
C       -0.4265949357    0.4873890800   -1.2154859673
C       -0.1142370675    1.6510668656   -0.6286856867
C       -0.8940045366    2.9288105354   -0.7781765465
H        0.0507914433    0.2007535251    1.6360872653
H        0.3450721895   -1.3341732190    2.4622306064
H        1.6174116261   -0.6120439694    1.4647706967
H       -1.0764512131   -1.6491839897    0.4309207072
H        0.2144076131   -3.5475184952   -0.5480225238
H        0.4077287341   -3.5077766437    1.2125447190
H        1.7067274629   -2.9161853287    0.1664806734
H        1.3764842523   -0.6755844888   -1.0961179442
H        0.0212069607   -1.5069026267   -1.8377282117
H       -1.3316444461    0.4550070051   -1.8257562489
H        0.7850561607    1.7077730025   -0.0134447015
H       -1.2454322958    3.2928527668    0.1958833549
H       -1.7672701932    2.7918357897   -1.4236244661
H       -0.2736585415    3.7259160076   -1.2072867493
21   
torsion grid (90,)
C        0.4362653004   -0.7129775975    1.5781731058
C       -0.0030575899   -1.4942808514    0.3344820822
C        0.6555910347   -2.8810313218    0.3010282986
C        0.3064027569   -0.7275550829   -0.9758988033
C       -0.4803894520    0.5471706642   -1.1492201172
C       -0.0965805807    1.7591374064   -0.7266976237
C       -0.9167260660    3.0154715380   -0.8341383151
H       -0.0494093190    0.2652101564    1.6314612918
H        0.1881601704   -1.2647760223    2.4917457033
H        1.5218738271   -0.5511031277    1.5713092959
H       -1.0917675532   -1.6363890985    0.3901778770
H        0.3095057519   -3.4682431075   -0.5571030808
H        0.4308377399   -3.4493630930    1.2104723225
H        1.7466393201   -2.7921142235    0.2264376981
H        1.3819321152   -0.5057188951   -0.9949535697
H        0.1106217129   -1.3934650819   -1.8253165140
H       -1.4760315174    0.4439657824   -1.5866610686
H        0.8929828690    1.8661392017   -0.2775179172
H       -1.0998760222    3.4530026563    0.1557048524
H       -1.8861532633    2.8220256562   -1.3038983690
H       -0.3974470295    3.7801455929   -1.4256025898
21   
torsion grid (105,)
C        0.3418766098   -0.6805856769    1.6529903899
C       -0.0229692193   -1.4522107349    0.3787575103
C        0.6786487985   -2.8171174159    0.3439147203
C        0.3133368275   -0.6418153201   -0.8961052767
C       -0.5025468509    0.6136556459   -1.0513035468
C       -0.0581082826    1.8586559120   -0.8366668988
C       -0.8879830251    3.1084299095   -0.9481995644
H       -0.1648000242    0.2879131498    1.6942875752
H        0.0659222141   -1.2490856678    2.5481501493
H        1.4228068123   -0.4950347243    1.6961935472
H       -1.1082014480   -1.6282993118    0.3861839365
H        0.3861863286   -3.3952203581   -0.5400215363
H        0.4343748659   -3.4118682612    1.2311796099
H        1.7685477268   -2.6940456592    0.3167186150
H        1.3819566405   -0.3900467406   -0.8802815211
H        0.1552474725   -1.2873449038   -1.7704055604
H       -1.5541103559    0.4733985466   -1.3135749221
H        0.9898438041    1.9970771548   -0.5622593186
H       -0.9065120734    3.6564240243    0.0025774483
H       -1.9209849044    2.8796965847   -1.2283101213
H       -0.4750587641    3.7936782546   -1.6992719078
21   
torsion grid (120,)
C        0.2366920908   -0.6392299646    1.7916292181
C       -0.0588723851   -1.3910906520    0.4873808832
C        0.6782144504   -2.7365836554    0.4482451111
C        0.3009928284   -0.5400187804   -0.7511071901
C       -0.5184018549    0.7150004490   -0.8834444422
C       -0.0330260602    1.9628192141   -0.8983077254
C       -0.8586515777    3.2139556592   -1.0274985450
H       -0.2983593794    0.3142139020    1.8345738416
H       -0.0537565305   -1.2346769815    2.6644161628
H        1.3091789001   -0.4224563385    1.8773889552
H       -1.1387076906   -1.5946116249    0.4482831679
H        0.4381545283   -3.2983047887   -0.4617079745
H        0.4121270407   -3.3603400347    1.3089245533
H        1.7647646264   -2.5862479226    0.4708103903
H        1.3681992032   -0.2847914201   -0.7163496052
H        0.1554020093   -1.1595368285   -1.6475280876
H       -1.5991866698    0.5732039267   -0.9655375664
H        1.0463378726    2.1028194761   -0.8094307587
H       -0.7166177084    3.8727892743   -0.1613221273
H       -1.9255836032    2.9834542675   -1.1076134696
H       -0.5677652169    3.7912802896   -1.9142393961
21   
torsion grid (135,)
C        0.1271750804   -0.6339853078    1.9704111869
C       -0.1167962005   -1.3502434243    0.6352733236
C        0.6392931852   -2.6842477912    0.5793772540
C        0.2658278579   -0.4560926086   -0.5622206966
C       -0.5549500964    0.8022074891   -0.6681919639
C       -0.0738054075    2.0274965231   -0.9121418751
C       -0.9057182434    3.2728574036   -1.0573204216
H       -0.4227146509    0.3108264780    2.0249321243
H       -0.1810881056   -1.2581462852    2.8166409635
H        1.1929236995   -0.4039678658    2.0952582262
H       -1.1919918359   -1.5664533527    0.5557807130
H        0.4393168684   -3.2188838769   -0.3562567359
H        0.3513046996   -3.3391689141    1.4092874100
H        1.7222109062   -2.5213646020    0.6457886618
H        1.3326724524   -0.2030477447   -0.5084049429
H        0.1315347695   -1.0446004909   -1.4818070462
H       -1.6363982999    0.6750607499   -0.5704764629
H        1.0064132500    2.1536500334   -1.0114023037
H       -0.6224085023    4.0280169160   -0.3131233784
H       -1.9720920878    3.0585763844   -0.9352610260
H       -0.7622927590    3.7322266101   -2.0436232574
21   
torsion grid (150,)
C        0.1067607885   -0.7619178179    2.0141512119
C       -0.0770499857   -1.4083071776    0.6339774699
C        0.6943247651   -2.7310400011    0.5389356802
C        0.3402957639   -0.4485663121   -0.4964933415
C       -0.4971889372    0.8048521608   -0.5726943111
C       -0.0734292875    1.9976343046   -1.0080819944
C       -0.9334975188    3.2243314898   -1.1481911023
H       -0.4497599956    0.1773766170    2.0956455029
H       -0.2338128633   -1.4294188941    2.8136391259
H        1.1649781034   -0.5352637300    2.1954674128
H       -1.1459149287   -1.6292120415    0.5002991814
H        0.5360483192   -3.2179454636   -0.4301224035
H        0.3813663536   -3.4306097018    1.3220378332
H        1.7721539276   -2.5629436068    0.6558377708
H        1.4013145300   -0.1874281017   -0.3908412010
H        0.2501098236   -0.9898702461   -1.4497797367
H       -1.5522758768    0.6912593761   -0.3103658796
H        0.9782433901    2.1118222817   -1.2801773281
H       -0.5503982173    4.0503678519   -0.5356258709
H       -1.9660356761    3.0258635823   -0.8440068332
H       -0.9479905444    3.5812714669   -2.1859389647
21   
torsion grid (165,)
C        0.0596752011   -0.8522407870    2.0380999202
C       -0.0766469586   -1.4111749542    0.6144564618
C        0.6826906336   -2.7367338859    0.4727703500
C        0.3980507023   -0.3928209512   -0.4375855386
C       -0.4431818377    0.8642057406   -0.4952586875
C       -0.0919890750    2.0043383246   -1.1020296204
C       -0.9611617530    3.2272689168   -1.2164580581
H       -0.4787033143    0.0939174827    2.1553728034
H       -0.3309236267   -1.5572463309    2.7804313083
H        1.1137160461   -0.6638027323    2.2777340115
H       -1.1415265696   -1.6092743825    0.4251885843
H        0.5506086266   -3.1685699861   -0.5258077049
H        0.3365543444   -3.4733449558    1.2063857358
H        1.7579514851   -2.5890936810    0.6329982621
H        1.4498430807   -0.1370761463   -0.2528906609
H        0.3721438253   -0.8813160173   -1.4218490996
H       -1.4435832242    0.7962803069   -0.0612474391
H        0.9021668402    2.0758980018   -1.5494451845
H       -0.4833542082    4.0997027893   -0.7528405944
H       -1.9314585016    3.0745034152   -0.7334288779
H       -1.1421090705    3.4877736187   -2.2671845638
21   
torsion grid (180,)
C        0.0092787636   -0.9279206636    2.0726175689
C       -0.0761305392   -1.4034403260    0.6147421144
C        0.6736958565   -2.7299179075    0.4335280823
C        0.4576610169   -0.3378603103   -0.3594394116
C       -0.3860680291    0.9204528198   -0.4184982267
C       -0.1293421827    1.9855796207   -1.1871753418
C       -0.9841960725    3.2213470858   -1.2663770273
H       -0.5238463377    0.0155607359    2.2282461860
H       -0.4176437080   -1.6700804307    2.7563411434
H        1.0550500610   -0.7677648735    2.3634066972
H       -1.1343691255   -1.5767692327    0.3719502084
H        0.5769653245   -3.1071179994   -0.5908095581
H        0.2904392517   -3.4993055011    1.1130524318
H        1.7432742118   -2.6047199242    0.6435579054
H        1.4895795883   -0.0861839687   -0.0775458709
H        0.5178830552   -0.7771826180   -1.3637299169
H       -1.2878531192    0.9350940396    0.1968885450
H        0.7671871931    1.9790432664   -1.8118164082
H       -0.4176068809    4.1156608740   -0.9771019275
H       -1.8571219533    3.1457433993   -0.6102862599
H       -1.3417774195    3.3917556284   -2.2899397122
