8    
torsion grid (-165,)
C       -0.3180028694   -0.6862630175   -0.1854079883
C        0.3115617366    0.6598477376    0.1286797154
F       -1.6792530485   -0.6253899783    0.1062035981
F        1.5517899695    0.7109954017   -0.4635941681
F        0.4830149200    0.8107784391    1.4789959489
H        0.1419452496   -1.4721961764    0.4196410597
H       -0.2006011071   -0.9036551586   -1.2503076538
H       -0.2840229768    1.5022114585   -0.2343029593
8    
torsion grid (-150,)
C       -0.3172011025   -0.6925163101   -0.1739916369
C        0.3139612961    0.6581806049    0.1389605136
F       -1.7026797742   -0.5811352819   -0.0549653968
F        1.4820529833    0.7903947483   -0.5741513960
F        0.6225480229    0.7599818738    1.4703807350
H        0.0394748370   -1.4568197489    0.5209823239
H       -0.0850816895   -0.9712415124   -1.2047010358
H       -0.3466426993    1.4894843324   -0.1226065542
8    
torsion grid (-135,)
C       -0.4382471611   -0.6334403731   -0.1456633826
C        0.4102537338    0.6030989905    0.1509654563
F        0.3985511491   -1.6671085671   -0.5702296757
F        0.0168337078    1.1691323212    1.3401481856
F        0.2548272135    1.5516774265   -0.8282860681
H       -1.1632894648   -0.4223030642   -0.9350688068
H       -0.9451265724   -0.9594868746    0.7652741676
H        1.4726292679    0.3547588469    0.2227676764
8    
torsion grid (-120,)
C       -0.4377714856   -0.6332459741   -0.1536683806
C        0.4121061752    0.6041654912    0.1462204546
F        0.4064564513   -1.7172903924   -0.4027514649
F        0.1351801166    1.0855300616    1.4024115445
F        0.1250578867    1.6111443219   -0.7435805945
H       -1.0500850099   -0.4628750041   -1.0418537863
H       -1.0660055513   -0.8763275751    0.7060238202
H        1.4814932908    0.3852277772    0.0871059598
8    
torsion grid (-105,)
C       -0.4358154508   -0.6307849979   -0.1616177390
C        0.4141461680    0.6028556329    0.1402559630
F        0.3949014272   -1.7506133215   -0.2315456997
F        0.2577993445    0.9951209487    1.4463236788
F       -0.0007513485    1.6542450719   -0.6440315092
H       -0.9256544578   -0.5111832966   -1.1305143854
H       -1.1749431481   -0.7896853776    0.6269319278
H        1.4767493393    0.4263740463   -0.0458946836
8    
torsion grid (-90,)
C       -0.4332516960   -0.6262403447   -0.1710691791
C        0.4160236334    0.6007121236    0.1312201413
F        0.3629465694   -1.7664343586   -0.0611838524
F        0.3812307203    0.8984441334    1.4689932867
F       -0.1119499268    1.6824130265   -0.5362426095
H       -0.8043355024   -0.5671582109   -1.1970991306
H       -1.2637715334   -0.7013823836    0.5353071752
H        1.4595396094    0.4759747204   -0.1700182789
8    
torsion grid (-75,)
C       -0.4283223725   -0.6233892159   -0.1836537965
C        0.4150076261    0.6017581531    0.1223106113
F        0.3158587513   -1.7663895327    0.1010882716
F        0.5002763986    0.8013576524    1.4747847101
F       -0.2074007969    1.7012048475   -0.4224347681
H       -0.6874603030   -0.6325374992   -1.2457118829
H       -1.3319939312   -0.6231639920    0.4317248703
H        1.4304665013    0.5374882929   -0.2782004631
8    
torsion grid (-60,)
C       -0.4218814415   -0.6238870081   -0.1969893860
C        0.4134175031    0.6058093707    0.1149830704
F        0.2487201334   -1.7564294263    0.2528466952
F        0.6199114664    0.7106268412    1.4630620925
F       -0.2875549980    1.7121877104   -0.3029329620
H       -0.5743727526   -0.7055757459   -1.2767122429
H       -1.3837479100   -0.5556591819    0.3192850914
H        1.3919398730    0.6092561460   -0.3736348057
8    
torsion grid (-45,)
C       -0.4138194759   -0.6290279249   -0.2086819820
C        0.4120854415    0.6122149881    0.1119921282
F        0.1597716629   -1.7432528098    0.3905174365
F        0.7438723121    0.6351288555    1.4362997868
F       -0.3568946546    1.7155499664   -0.1744464783
H       -0.4572457505   -0.7839440556   -1.2903575160
H       -1.4227850533   -0.5004553337    0.1942337325
H        1.3414473917    0.6901150201   -0.4596495549
8    
torsion grid (-30,)
C       -0.4074824266   -0.6360340525   -0.2170609785
C        0.4112568985    0.6195426805    0.1099713483
F        0.0522477270   -1.7210942816    0.5156810582
F        0.8721315413    0.5741077526    1.3922394486
F       -0.4108294450    1.7126947453   -0.0335743554
H       -0.3364461490   -0.8682281533   -1.2832233302
H       -1.4509559502   -0.4561222640    0.0577270606
H        1.2765096779    0.7714622792   -0.5418526989
8    
torsion grid (-15,)
C       -0.4030719928   -0.6424463749   -0.2231969231
C        0.4090864342    0.6263575999    0.1077767973
F       -0.0671597402   -1.6849933699    0.6273109817
F        0.9988305197    0.5224765360    1.3310435531
F       -0.4483036225    1.7027131061    0.1215075712
H       -0.2116063119   -0.9570668375   -1.2528145179
H       -1.4660585476   -0.4217709923   -0.0923246991
H        1.1947151348    0.8510590386   -0.6193952104
8    
torsion grid (0,)
C       -0.3993495117   -0.6453706330   -0.2278053357
C        0.4049203778    0.6307367865    0.1038880360
F       -0.1953685942   -1.6313926078    0.7245939164
F        1.1188345641    0.4748624976    1.2526334298
F       -0.4692417392    1.6803824594    0.2848761436
H       -0.0876013352   -1.0430780043   -1.1979282372
H       -1.4635258691   -0.3966898650   -0.2512692946
H        1.0977639813    0.9268780725   -0.6890811056
8    
torsion grid (15,)
C       -0.3942028793   -0.6447496116   -0.2315020441
C        0.3972133087    0.6327381386    0.0994918426
F       -0.3269623066   -1.5619498885    0.8050951538
F        1.2285451021    0.4317471216    1.1591343900
F       -0.4758698131    1.6425330649    0.4454876707
H        0.0288986009   -1.1199625479   -1.1219081243
H       -1.4399605790   -0.3814706306   -0.4101121949
H        0.9887704402    0.9974430595   -0.7457791411
8    
torsion grid (30,)
C       -0.3873255961   -0.6426650046   -0.2348989551
C        0.3868079182    0.6337128923    0.0961168486
F       -0.4608953612   -1.4815297055    0.8656834645
F        1.3280327474    0.3965398255    1.0539824722
F       -0.4698142755    1.5912813947    0.5946893143
H        0.1310278905   -1.1853237663   -1.0321243103
H       -1.3975932168   -0.3775957423   -0.5586620321
H        0.8761917674    1.0619088123   -0.7848792494
8    
torsion grid (45,)
C       -0.3791620773   -0.6418922979   -0.2376340959
C        0.3757138482    0.6352079796    0.0954044284
F       -0.5982793108   -1.3973672713    0.9033977037
F        1.4181058842    0.3740296017    0.9397710848
F       -0.4517719729    1.5311724855    0.7297479787
H        0.2168764548   -1.2408814705   -0.9339422662
H       -1.3411690130   -0.3853304528   -0.6911955762
H        0.7661180606    1.1213901318   -0.8056417045
8    
torsion grid (60,)
C       -0.3709979376   -0.6446240400   -0.2376774882
C        0.3669261984    0.6375617375    0.0979292103
F       -0.7405153952   -1.3166423137    0.9171671812
F        1.5018304409    0.3698671561    0.8176048742
F       -0.4207942384    1.4675095671    0.8517600620
H        0.2844164743   -1.2925965058   -0.8282313911
H       -1.2732098285   -0.4016495561   -0.8079024192
H        0.6587761598    1.1769026609   -0.8107424765
8    
torsion grid (75,)
C       -0.3636655162   -0.6508530172   -0.2358305421
C        0.3597899864    0.6423561041    0.1032813053
F       -0.8849949031   -1.2424778241    0.9045355205
F        1.5752970565    0.3821930337    0.6887341080
F       -0.3758914560    1.4031467390    0.9660928469
H        0.3374270576   -1.3418957386   -0.7131561304
H       -1.1941488435   -0.4292526515   -0.9139575012
H        0.5526184921    1.2331120608   -0.7997920543
8    
torsion grid (90,)
C       -0.3590073528   -0.6588042818   -0.2330408257
C        0.3539072917    0.6498356063    0.1074695547
F       -1.0279558430   -1.1681958478    0.8694462415
F        1.6341020709    0.4024935482    0.5494802576
F       -0.3124991545    1.3369194934    1.0766172702
H        0.3755092019   -1.3896581110   -0.5824687867
H       -1.1024704548   -0.4713116868   -1.0143012475
H        0.4448461144    1.2950499855   -0.7732949113
8    
torsion grid (105,)
C       -0.3554048716   -0.6665136671   -0.2315787743
C        0.3466465976    0.6597547948    0.1088699143
F       -1.1643109010   -1.0914802064    0.8107645502
F        1.6730377788    0.4277885814    0.4009244585
F       -0.2310248965    1.2623477377    1.1835325775
H        0.3999339798   -1.4304665121   -0.4336192571
H       -0.9928827768   -0.5294496391   -1.1102822845
H        0.3304369635    1.3643476171   -0.7287036317
8    
torsion grid (120,)
C       -0.3533545069   -0.6711321811   -0.2295864380
C        0.3381642786    0.6685575984    0.1061968178
F       -1.2923838158   -1.0079723731    0.7325647149
F        1.6923076582    0.4538660518    0.2432788654
F       -0.1280152820    1.1793929990    1.2788320920
H        0.4034356642   -1.4588734769   -0.2698465699
H       -0.8669627766   -0.5975918782   -1.1925034278
H        0.2132406540    1.4300819661   -0.6690285017
8    
torsion grid (135,)
C       -0.3501028937   -0.6719990676   -0.2259411052
C        0.3286283048    0.6730962628    0.1023927620
F       -1.4074054205   -0.9189338888    0.6365180705
F        1.6923753786    0.4821450773    0.0832884147
F       -0.0116664626    1.0894621578    1.3552183082
H        0.3855075782   -1.4715434956   -0.1033183620
H       -0.7292323809   -0.6677535304   -1.2517655698
H        0.0983277699    1.4818551906   -0.5964849656
8    
torsion grid (150,)
C       -0.3412153541   -0.6726985741   -0.2205187109
C        0.3177806622    0.6733628823    0.1026733169
F       -1.5022607808   -0.8350481035    0.5219123753
F        1.6752877025    0.5239080820   -0.0686839360
F        0.1040744986    1.0000857957    1.4114444481
H        0.3531467430   -1.4727590066    0.0512356006
H       -0.5854619551   -0.7336675933   -1.2848215861
H       -0.0149196426    1.5131452235   -0.5133339551
8    
torsion grid (165,)
C       -0.3315588967   -0.6748815127   -0.2111414337
C        0.3113002358    0.6695711075    0.1074655078
F       -1.5792579788   -0.7539906372    0.3951363073
F        1.6464785607    0.5753095121   -0.2117180636
F        0.2249870121    0.9228478956    1.4485323990
H        0.3002182327   -1.4728244786    0.1895159149
H       -0.4488180888   -0.7924060975   -1.2921269067
H       -0.1169172031    1.5227029170   -0.4257561723
8    
torsion grid (180,)
C       -0.3237301715   -0.6793293380   -0.1988074825
C        0.3103107474    0.6638586743    0.1168718983
F       -1.6384008152   -0.6807465561    0.2568493979
F        1.6063013211    0.6365862023   -0.3437449255
F        0.3519168158    0.8604232409    1.4704376227
H        0.2278262557   -1.4742560640    0.3111003304
H       -0.3223701231   -0.8467231841   -1.2793633887
H       -0.2054221565    1.5165157309   -0.3334358998
