10   
torsion grid (-165,)
C        1.7507294402   -0.1309904152   -0.0578733886
N       -0.4588145237    0.5044643497    0.0951873187
N       -1.7585450364    0.1216408849    0.2016590512
N        0.3168751313   -0.5400661547   -0.0347551055
O        0.0020322283   -1.7320119824   -0.1338469845
O       -4.1286355511    0.9998398461    0.1732328874
S       -2.7131945072    1.3785237403   -0.0307386601
Br       2.6652990317   -0.9226405682    1.4652780401
Br       2.5304539777   -0.6225053310   -1.7717630140
H        1.7920351566    0.9465801311    0.0400592687
10   
torsion grid (-150,)
C        1.7559556091   -0.1341581927   -0.0580994583
N       -0.4368677945    0.5412915868    0.1611245659
N       -1.7360690733    0.1748784656    0.3446731658
N        0.3133445675   -0.5094684783   -0.0208529580
O       -0.0354389469   -1.6897316692   -0.1568373007
O       -4.1290365799    0.9674803241    0.1566728051
S       -2.7287396752    1.2993242895   -0.1825814504
Br       2.6731628949   -0.9836700451    1.4318083401
Br       2.4978669738   -0.6027098687   -1.7945162381
H        1.8240573719    0.9395980887    0.0650479420
10   
torsion grid (-135,)
C        1.7588256109   -0.1389105156   -0.0583040230
N       -0.4070355325    0.5918047661    0.2319274997
N       -1.7104699763    0.2588188207    0.4699252873
N        0.3065619386   -0.4705563738    0.0072909345
O       -0.0862978553   -1.6365396005   -0.1485255632
O       -4.1228729514    0.9218333480    0.1072173612
S       -2.7307598835    1.1853680012   -0.3107136333
Br       2.6876693773   -1.0566694857    1.3821533217
Br       2.4400384005   -0.5810297731   -1.8262190461
H        1.8625762193    0.9287153135    0.0916872745
10   
torsion grid (-120,)
C        1.7576338467   -0.1442104990   -0.0593283056
N       -0.3734278016    0.6514749737    0.3034246630
N       -1.6849122930    0.3647697848    0.5756171477
N        0.2964059766   -0.4249249491    0.0365234293
O       -0.1448269111   -1.5733805203   -0.1356676075
O       -4.1067467443    0.8532478768    0.0398358212
S       -2.7137218497    1.0568881555   -0.4022853392
Br       2.6900265997   -1.1336723245    1.3295847859
Br       2.3741248171   -0.5621677733   -1.8566902417
H        1.9036797071    0.9148097761    0.1154250602
10   
torsion grid (-105,)
C        1.7526922169   -0.1503064801   -0.0606513201
N       -0.3391472892    0.7150717937    0.3603835902
N       -1.6588825792    0.4883043838    0.6523664555
N        0.2837852235   -0.3767953778    0.0537109943
O       -0.2047098951   -1.5053685702   -0.1351375627
O       -4.0818553770    0.7691271803   -0.0092383050
S       -2.6866937942    0.9212590716   -0.4616709533
Br       2.6687530055   -1.2072745694    1.2885106956
Br       2.3222873711   -0.5492703210   -1.8777547076
H        1.9420064652    0.8980873897    0.1359205264
10   
torsion grid (-90,)
C        1.7458588425   -0.1571390195   -0.0608398360
N       -0.3076688371    0.7764812631    0.3957755193
N       -1.6340205647    0.6212515236    0.6943343460
N        0.2704490265   -0.3309086638    0.0559778766
O       -0.2590479017   -1.4396801591   -0.1494306111
O       -4.0538731648    0.6883919136   -0.0270830281
S       -2.6582634965    0.7798006448   -0.4931180700
Br       2.6277310591   -1.2714565699    1.2646772660
Br       2.2928893501   -0.5438487555   -1.8877427547
H        1.9741810340    0.8799423235    0.1538887053
10   
torsion grid (-75,)
C        1.7410703401   -0.1646385248   -0.0563657460
N       -0.2808374592    0.8359271626    0.3953352701
N       -1.6078889085    0.7565396659    0.6893281847
N        0.2606812614   -0.2863439339    0.0329867739
O       -0.3037173006   -1.3747289981   -0.1987049731
O       -4.0326552359    0.6179761001    0.0125888421
S       -2.6469968879    0.6295270450   -0.4915231758
Br       2.5613344447   -1.3315042340    1.2640771554
Br       2.3056252352   -0.5401112371   -1.8808982316
H        2.0016198581    0.8601914549    0.1796153136
10   
torsion grid (-60,)
C        1.7384278609   -0.1710598095   -0.0486663157
N       -0.2587847535    0.8984658500    0.3651244763
N       -1.5815322097    0.8755801038    0.6462957763
N        0.2562962757   -0.2336665486   -0.0204912755
O       -0.3424274518   -1.2939459564   -0.3057094170
O       -4.0137441629    0.5465442200    0.1135243542
S       -2.6516548031    0.4737319959   -0.4488430584
Br       2.4574968279   -1.3916793018    1.2839943275
Br       2.3654490928   -0.5397673698   -1.8548726259
H        2.0287086711    0.8386313170    0.2160831715
10   
torsion grid (-45,)
C        1.7351863331   -0.1788947613   -0.0381767741
N       -0.2415301196    0.9668146321    0.3049803180
N       -1.5586239547    0.9828065209    0.5648369934
N        0.2572482476   -0.1772234691   -0.0816438072
O       -0.3778600284   -1.2054160948   -0.4185572643
O       -3.9897117136    0.4900080617    0.2355583060
S       -2.6569545649    0.3100348916   -0.3760527731
Br       2.3367091222   -1.4382342249    1.3188257290
Br       2.4398190740   -0.5627056917   -1.8134771382
H        2.0539529518    0.8156446360    0.2501458238
10   
torsion grid (-30,)
C        1.7269990358   -0.1846477316   -0.0291857059
N       -0.2308319481    1.0270969063    0.2599227955
N       -1.5439626088    1.0661269689    0.4744063829
N        0.2594071167   -0.1234845078   -0.1305003468
O       -0.4131759636   -1.1166097305   -0.5130241895
O       -3.9507074025    0.4379955434    0.3328614931
S       -2.6396934997    0.1623592909   -0.2941824155
Br       2.2254841295   -1.4779656379    1.3410038596
Br       2.4924961934   -0.5821445405   -1.7769214152
H        2.0722202949    0.7941079394    0.2820589552
10   
torsion grid (-15,)
C        1.7233074347   -0.1880355519   -0.0233899173
N       -0.2278867703    1.0547273521    0.2554974308
N       -1.5427146516    1.1206887425    0.3875647985
N        0.2619558004   -0.0942080273   -0.1454688208
O       -0.4346128616   -1.0648843091   -0.5488988714
O       -3.9297008326    0.4336899374    0.3590200126
S       -2.6204881466    0.0500709456   -0.2166152106
Br       2.1764390711   -1.5114569641    1.3359295988
Br       2.5076128205   -0.5762991324   -1.7647199933
H        2.0843234832    0.7785415080    0.3075203860
10   
torsion grid (0,)
C        1.7317497862   -0.1859539810   -0.0252600624
N       -0.2331488294    1.0178259928    0.3366648283
N       -1.5512938365    1.1285600802    0.3411414617
N        0.2620328303   -0.1345850781   -0.0447073491
O       -0.4339416532   -1.1218925785   -0.3998567156
O       -3.9569539937    0.5838920096    0.0933836988
S       -2.6245580057   -0.0387899604   -0.0850481175
Br       2.3204182525   -1.5392770827    1.2479501777
Br       2.3982431134   -0.4872081234   -1.8317439495
H        2.0856876835    0.7802632222    0.3139154409
10   
torsion grid (15,)
C        1.7234265656   -0.1864142276   -0.0281214108
N       -0.2321378787    0.9974348658    0.4231702033
N       -1.5404867034    1.1507556942    0.2995632912
N        0.2567647427   -0.1642154387    0.0594179791
O       -0.4422563291   -1.1679830218   -0.2471729540
O       -3.9153731833    0.6268521398   -0.2063206688
S       -2.6278283796   -0.0489404990    0.0731252253
Br       2.4338825824   -1.5706839209    1.1454038408
Br       2.2581885741   -0.4089258191   -1.8906577784
H        2.0840553568    0.7749547280    0.3180316855
10   
torsion grid (30,)
C        1.7253005636   -0.1802981955   -0.0949209691
N       -0.2406560862    1.0523261841   -0.1206665008
N       -1.5629332587    1.1148395169   -0.2603589349
N        0.2650715659   -0.1380264913    0.0888619066
O       -0.3903485100   -1.1752136669    0.3710984375
O       -3.9613524765    0.4653416828   -0.0794093996
S       -2.6207947085    0.1138643545    0.4375873065
Br       2.5782424977   -0.8022534429    1.5434416762
Br       2.1482981772   -1.2798746964   -1.6475261721
H        2.0574075828    0.8321292552   -0.2916679370
10   
torsion grid (45,)
C        1.7339585155   -0.1757537497   -0.0856830792
N       -0.2538611833    0.9984785839   -0.1726704489
N       -1.5825063821    1.0441270417   -0.3601139709
N        0.2602215618   -0.1848584665    0.0335185047
O       -0.3602371865   -1.2506629553    0.2640498806
O       -3.9951266691    0.5039322715    0.0257800906
S       -2.6333212815    0.2493893849    0.5389996610
Br       2.5275783658   -0.7879835038    1.5849012982
Br       2.2606517117   -1.2430396128   -1.6260445964
H        2.0408778951    0.8492055068   -0.2562979265
10   
torsion grid (60,)
C        1.7377616072   -0.1693598743   -0.0744316233
N       -0.2744168350    0.9386016588   -0.2403391143
N       -1.6099362771    0.9485046556   -0.4537203719
N        0.2559356141   -0.2327448569   -0.0344136533
O       -0.3309527975   -1.3234126297    0.1388424648
O       -4.0126632099    0.5437949073    0.1552770575
S       -2.6237297222    0.4020728421    0.6323773961
Br       2.4555136033   -0.7709608075    1.6327269895
Br       2.3832274446   -1.2010738755   -1.5916317988
H        2.0174959200    0.8674124807   -0.2182479330
10   
torsion grid (75,)
C        1.7408181441   -0.1640014200   -0.0660987727
N       -0.2982057309    0.8805209824   -0.2773593825
N       -1.6388749999    0.8360936883   -0.5106651020
N        0.2573868085   -0.2778922558   -0.0945277567
O       -0.2980692936   -1.3892427751    0.0202668536
O       -4.0261184945    0.6012218635    0.2655898132
S       -2.6163535780    0.5508906936    0.6949396444
Br       2.3971047074   -0.7749388619    1.6615196344
Br       2.4881567581   -1.1436990279   -1.5693141207
H        1.9923910263    0.8838816137   -0.1779113976
10   
torsion grid (90,)
C        1.7458560293   -0.1571410776   -0.0609251610
N       -0.3252274286    0.8215593666   -0.2842617629
N       -1.6656913645    0.7025552663   -0.5321274689
N        0.2658082642   -0.3190020730   -0.1236635867
O       -0.2562119051   -1.4469746827   -0.0393624940
O       -4.0450298105    0.6657190136    0.3152383566
S       -2.6270110834    0.6996050342    0.7169164293
Br       2.3847300957   -0.7795956210    1.6684533618
Br       2.5546356934   -1.0838644447   -1.5654045617
H        1.9663768571    0.8999737191   -0.1484236993
10   
torsion grid (105,)
C        1.7526939114   -0.1503202858   -0.0605623608
N       -0.3550546434    0.7559117982   -0.2557071149
N       -1.6888169344    0.5651518651   -0.5068396453
N        0.2790867020   -0.3647412324   -0.1281594733
O       -0.2029046246   -1.5100187725   -0.0649740475
O       -4.0736162624    0.7480070333    0.3096621547
S       -2.6565369167    0.8438760533    0.7059075722
Br       2.4135549667   -0.7835488364    1.6563416126
Br       2.5945988270   -1.0169633075   -1.5826375959
H        1.9352303217    0.9154801853   -0.1265916886
10   
torsion grid (120,)
C        1.7575817642   -0.1440860516   -0.0613209367
N       -0.3865794125    0.6852405429   -0.2059505164
N       -1.7112890477    0.4324826940   -0.4458214078
N        0.2924099497   -0.4146741381   -0.1181380856
O       -0.1433056777   -1.5773017837   -0.0764877278
O       -4.1007100508    0.8377800890    0.2734532013
S       -2.6861190669    0.9860630964    0.6663950124
Br       2.4642022891   -0.7933817370    1.6311208889
Br       2.6139796722   -0.9385107795   -1.6146861028
H        1.8980649278    0.9292225682   -0.1021249123
10   
torsion grid (135,)
C        1.7587382930   -0.1386935525   -0.0616957060
N       -0.4166723956    0.6165470063   -0.1413099962
N       -1.7317416625    0.3134302073   -0.3538578502
N        0.3038994358   -0.4637277004   -0.0957279578
O       -0.0844078425   -1.6414056439   -0.0750740832
O       -4.1200456191    0.9145989580    0.2166079024
S       -2.7074064206    1.1254413416    0.5935585082
Br       2.5284150413   -0.8078431607    1.5950710504
Br       2.6091721721   -0.8552481695   -1.6564578546
H        1.8582843455    0.9397352144   -0.0746745997
10   
torsion grid (150,)
C        1.7558759196   -0.1339632840   -0.0611133902
N       -0.4430071177    0.5570148064   -0.0763794044
N       -1.7511678836    0.2135904332   -0.2396203432
N        0.3119896085   -0.5060034439   -0.0733157371
O       -0.0333518178   -1.6950753261   -0.0763797128
O       -4.1285867382    0.9663692517    0.1739613918
S       -2.7115799805    1.2553358398    0.4815914827
Br       2.5845149795   -0.8249778181    1.5578235377
Br       2.5923407745   -0.7763364133   -1.6952695614
H        1.8212076032    0.9468804551   -0.0448588498
10   
torsion grid (165,)
C        1.7507448853   -0.1308349321   -0.0604884557
N       -0.4617145136    0.5118419361   -0.0148862235
N       -1.7664591455    0.1418225247   -0.1039021195
N        0.3161631881   -0.5380201005   -0.0631530293
O        0.0027443065   -1.7337056806   -0.1052986106
O       -4.1290542356    1.0004879127    0.1612131561
S       -2.7037554197    1.3540233304    0.3401484084
Br       2.6166829090   -0.8423442584    1.5303210394
Br       2.5821184741   -0.7107826315   -1.7205633071
H        1.7907648988    0.9503464000   -0.0169514448
10   
torsion grid (180,)
C        1.7482060909   -0.1293525394   -0.0591400841
N       -0.4678966398    0.4924014282    0.0396224598
N       -1.7699440411    0.1076698331    0.0468472891
N        0.3175783575   -0.5503542943   -0.0523251647
O        0.0157378914   -1.7469173227   -0.1270085458
O       -4.1275826444    1.0092924621    0.1698261208
S       -2.7008370136    1.4004024799    0.1597287655
Br       2.6409414136   -0.8722567127    1.5019081700
Br       2.5634262723   -0.6587204512   -1.7443043347
H        1.7786056607    0.9506696177    0.0112847375
