44
0 1 C16H21N3O4
C                    -1.722779844202     6.048233924496    -3.540259686244
C                    -1.564345848943     3.858062886353    -2.490276038735
C                    -1.688135781701     4.622784382517    -3.633929947566
C                    -1.669269338823     6.665101344751    -2.318703674025
C                    -1.484632536009     4.480389748514    -1.180598172372
C                    -0.216952247459    -1.452890661251     1.503225050303
C                    -1.695465473455     2.357565395314    -2.569507250064
C                     0.830186844996     1.488109357285    -0.186834137097
C                     0.294892171142    -0.607047060707    -1.511766790708
C                     0.596349256550     2.053653848417    -1.590813710781
C                    -0.892920189475     0.120277376144    -2.140804154369
C                     1.794646252868    -0.811115308907     0.537862358099
C                     0.637408407373    -0.041174633166    -0.127368271390
C                    -1.821382285841     3.992962772937    -4.998770013677
C                    -1.728522893342     8.150595958062    -2.106733047910
C                     1.757897657892    -2.787791775236     2.125010167295
N                    -1.556345589119     5.883503874037    -1.202370581319
N                     1.079674039806    -1.854482087531     1.246550141984
N                    -0.669163448060     1.575628446836    -2.135227018160
O                    -1.356669670521     3.902562996113    -0.093180301435
O                    -1.018666029996    -1.974645489486     2.249542043544
O                    -2.721684079355     1.861878381529    -3.050184739656
O                    -0.489447797509    -0.337581589949     0.755985992231
H                    -1.807524939188     6.651211940542    -4.437596515722
H                     1.839749397103     1.758507598129     0.142326920487
H                     0.116819980962     1.955308142393     0.494688890314
H                     0.057707097622    -1.671645953053    -1.424602022342
H                     1.179716621349    -0.527864565432    -2.154054016168
H                     0.587889274024     3.139827830111    -1.552950605098
H                     1.414403708555     1.765926233989    -2.266026167661
H                    -1.055443131748    -0.223571217177    -3.167695196334
H                    -1.807847028189    -0.094279397210    -1.582906342725
H                     2.491717586250    -1.222502413909    -0.199975327064
H                     2.361539780755    -0.171859083507     1.232864635046
H                    -1.509731643949     4.689694528012    -5.781890324109
H                    -2.865283803328     3.714259000520    -5.173953769428
H                    -1.234453992340     3.076122492931    -5.084895324539
H                    -2.598542663853     8.423700786876    -1.498495708903
H                    -1.803332437484     8.671522227079    -3.062556172577
H                    -0.832431037920     8.510719692836    -1.588202692214
H                     2.436514227100    -3.423778304611     1.547657906932
H                     1.005154310146    -3.411617013253     2.608589294285
H                     2.336439005906    -2.265014026285     2.900226025436
H                    -1.516694742899     6.310252411370    -0.281178337348
