19
0 1 C6H12O
C                    -0.093069989154    -0.759477985019     1.022827723002
C                     1.162505984547     0.048593665909    -0.424826105320
C                    -0.324242085531     0.316663384148    -0.069753097142
C                    -1.312380078039    -0.108752621468    -1.155290071185
C                    -0.531252659566     2.840732504928    -0.555066613024
C                    -0.609563912189     1.716838136645     0.485753479107
O                     1.277249103711    -0.976761841377     0.596213776601
H                    -0.139803015072    -0.395916794461     2.057617877859
H                    -0.694794109216    -1.672266508584     0.929217020575
H                     1.349596089953    -0.356979845340    -1.426953929288
H                     1.850716203203     0.882510786898    -0.235195721757
H                    -2.343677224088    -0.067442296682    -0.784593767333
H                    -1.112886365738    -1.134757376273    -1.482302854506
H                    -1.245866000519     0.537578634446    -2.036502188415
H                     0.436048435220     2.837145064447    -1.071096050762
H                    -0.647403633531     3.819840458760    -0.079104071212
H                    -1.313982426633     2.749671050212    -1.314350188919
H                    -1.603681088584     1.716597779064     0.953162030061
H                     0.107445744261     1.922569297770     1.290528879897
