
  -OEChem-12122420533D

 28 30  0     0  0  0  0  0  0999 V2000
   -0.7853    1.2839    1.4828 C   0  0  0  0  0  0  0  0  0  0  0  0
   -0.7292    0.0304    0.8494 C   0  0  0  0  0  0  0  0  0  0  0  0
   -1.8690    1.5794    2.2964 C   0  0  0  0  0  0  0  0  0  0  0  0
   -1.7518   -0.8969    1.0076 C   0  0  0  0  0  0  0  0  0  0  0  0
   -4.9334   -0.1116    3.6502 C   0  0  0  0  0  0  0  0  0  0  0  0
   -2.9118    0.6548    2.4806 C   0  0  0  0  0  0  0  0  0  0  0  0
   -2.8710   -0.5908    1.8131 C   0  0  0  0  0  0  0  0  0  0  0  0
   -4.0142    0.9833    3.4139 C   0  0  0  0  0  0  0  0  0  0  0  0
   -4.8787   -1.2901    2.9624 C   0  0  0  0  0  0  0  0  0  0  0  0
   -3.9298   -2.5779   -0.3458 C   0  0  0  0  0  0  0  0  0  0  0  0
   -5.2064   -2.9929    0.3320 C   0  0  0  0  0  0  0  0  0  0  0  0
   -3.9739   -2.7008    1.1620 C   0  0  0  0  0  0  0  0  0  0  0  0
   -5.8362   -2.4088    3.2890 C   0  0  0  0  0  0  0  0  0  0  0  0
   -3.9250   -1.5058    1.9757 N   0  0  0  0  0  0  0  0  0  0  0  0
   -4.1062    2.0868    3.9733 O   0  0  0  0  0  0  0  0  0  0  0  0
    0.0181    2.0026    1.3475 H   0  0  0  0  0  0  0  0  0  0  0  0
    0.1267   -0.2287    0.2312 H   0  0  0  0  0  0  0  0  0  0  0  0
   -1.9488    2.5238    2.8266 H   0  0  0  0  0  0  0  0  0  0  0  0
   -1.6726   -1.8609    0.5224 H   0  0  0  0  0  0  0  0  0  0  0  0
   -5.6902    0.0246    4.4151 H   0  0  0  0  0  0  0  0  0  0  0  0
   -3.3510   -3.3194   -0.8886 H   0  0  0  0  0  0  0  0  0  0  0  0
   -3.8887   -1.5755   -0.7580 H   0  0  0  0  0  0  0  0  0  0  0  0
   -6.0044   -2.2585    0.3523 H   0  0  0  0  0  0  0  0  0  0  0  0
   -5.5351   -4.0259    0.2694 H   0  0  0  0  0  0  0  0  0  0  0  0
   -3.4595   -3.5607    1.5888 H   0  0  0  0  0  0  0  0  0  0  0  0
   -6.6017   -2.5425    2.5208 H   0  0  0  0  0  0  0  0  0  0  0  0
   -6.3401   -2.1809    4.2294 H   0  0  0  0  0  0  0  0  0  0  0  0
   -5.3147   -3.3640    3.4002 H   0  0  0  0  0  0  0  0  0  0  0  0
  1  2  1  0  0  0  0
  1  3  2  0  0  0  0
  1 16  1  0  0  0  0
  2  4  2  0  0  0  0
  2 17  1  0  0  0  0
  3  6  1  0  0  0  0
  3 18  1  0  0  0  0
  4  7  1  0  0  0  0
  4 19  1  0  0  0  0
  5  8  1  0  0  0  0
  5  9  2  0  0  0  0
  5 20  1  0  0  0  0
  6  7  2  0  0  0  0
  6  8  1  0  0  0  0
  7 14  1  0  0  0  0
  8 15  2  0  0  0  0
  9 13  1  0  0  0  0
  9 14  1  0  0  0  0
 10 11  1  0  0  0  0
 10 12  1  0  0  0  0
 10 21  1  0  0  0  0
 10 22  1  0  0  0  0
 11 12  1  0  0  0  0
 11 23  1  0  0  0  0
 11 24  1  0  0  0  0
 12 14  1  0  0  0  0
 12 25  1  0  0  0  0
 13 26  1  0  0  0  0
 13 27  1  0  0  0  0
 13 28  1  0  0  0  0
M  END
$$$$
