25
0 1 C11H12N2
C                    -1.626798904130    -2.603191395689     2.560596689019
C                    -2.181479889844    -1.418507498990     2.064001998731
C                    -2.287102830286    -3.301705673614     3.575996901859
C                    -3.387459756079    -0.939709943191     2.582878436322
C                    -3.492044524918    -2.819226102782     4.097320709965
C                    -7.030132372638    -3.382323085813     6.375317294765
C                    -6.236829544358    -2.270398367362     6.214349482603
C                    -4.049164297893    -1.632801276562     3.605285103602
C                    -6.902101682507    -3.056195526006     4.243636155508
C                    -7.049631261658    -3.179702179618     2.761756584561
C                    -5.343152694973    -1.069924097869     4.172205852364
N                    -7.438810217324    -3.862648942440     5.146556111481
N                    -6.167804859647    -2.058780030391     4.845447013007
H                    -0.692130501018    -2.981147767450     2.154656024038
H                    -1.679995358709    -0.872597392704     1.268988155317
H                    -1.866673827746    -4.226639846060     3.962333212801
H                    -3.819018292003    -0.022737427091     2.185201212160
H                    -4.004001229632    -3.372505038769     4.879645402461
H                    -7.333343976838    -3.858857350683     7.298738126224
H                    -5.732101887185    -1.621042842522     6.916159058146
H                    -7.533896451027    -2.298034430226     2.324811447974
H                    -6.080133890945    -3.305660797004     2.267227897356
H                    -7.668489986341    -4.052426167387     2.548794089849
H                    -5.121230843784    -0.279169755285     4.895865911659
H                    -5.926188175700    -0.605352010849     3.370767458939
