21
0 1 C9FH8N3
C                     0.332732522205    -0.083907444504     1.048998578839
C                     0.249819396388    -1.476394421612     1.133173808179
C                     1.041468641136    -2.277758947190     6.916907039550
C                     0.580149935607     0.633991155575     2.219627428278
C                     1.757860795408    -3.241359124733     6.157766701342
C                     0.426211078499    -2.073646798448     2.372937733987
C                     0.525084480038    -1.387842309353     5.993952810096
C                     0.712604732431    -1.277329739734     3.496752302347
C                    -0.332279393051    -0.178754807614     6.196226041572
N                     0.776802707135     0.051570547016     3.409014630858
N                     1.696505682390    -2.993092397783     4.856486628599
N                     0.936904573710    -1.855772089276     4.762556181425
F                     0.279350527512    -3.405368414664     2.481466317699
H                     0.199624096274     0.428650797112     0.101279924864
H                     0.034270394597    -2.098822880506     0.269766006371
H                     0.909171078737    -2.237114496671     7.989824423019
H                     0.635311241045     1.720444775675     2.205963342434
H                     2.316655620634    -4.101014393354     6.507856214890
H                     0.218630469481     0.741257932104     5.986117553018
H                    -1.206196723056    -0.190679667887     5.537414866117
H                    -0.681982702487    -0.157022679637     7.231230211568
