
  -OEChem-12122420533D

 21 22  0     0  0  0  0  0  0999 V2000
    0.1982   -0.4548    0.9240 C   0  0  0  0  0  0  0  0  0  0  0  0
    0.9429    0.3125    1.8213 C   0  0  0  0  0  0  0  0  0  0  0  0
    1.0411   -2.4830    6.8405 C   0  0  0  0  0  0  0  0  0  0  0  0
   -0.2428   -1.7174    1.3332 C   0  0  0  0  0  0  0  0  0  0  0  0
    1.6846   -3.4941    6.0795 C   0  0  0  0  0  0  0  0  0  0  0  0
    1.2018   -0.2322    3.0714 C   0  0  0  0  0  0  0  0  0  0  0  0
    0.5875   -1.5616    5.9136 C   0  0  0  0  0  0  0  0  0  0  0  0
    0.7076   -1.4979    3.4107 C   0  0  0  0  0  0  0  0  0  0  0  0
   -0.1943   -0.2979    6.0883 C   0  0  0  0  0  0  0  0  0  0  0  0
   -0.0038   -2.2225    2.5482 N   0  0  0  0  0  0  0  0  0  0  0  0
    1.6390   -3.2426    4.7758 N   0  0  0  0  0  0  0  0  0  0  0  0
    0.9708   -2.0521    4.6868 N   0  0  0  0  0  0  0  0  0  0  0  0
    1.9514    0.4638    3.9554 F   0  0  0  0  0  0  0  0  0  0  0  0
   -0.0319   -0.0843   -0.0704 H   0  0  0  0  0  0  0  0  0  0  0  0
    1.3329    1.2938    1.5680 H   0  0  0  0  0  0  0  0  0  0  0  0
    0.9110   -2.4342    7.9134 H   0  0  0  0  0  0  0  0  0  0  0  0
   -0.8191   -2.3478    0.6593 H   0  0  0  0  0  0  0  0  0  0  0  0
    2.1808   -4.3915    6.4291 H   0  0  0  0  0  0  0  0  0  0  0  0
    0.4202    0.5886    5.9035 H   0  0  0  0  0  0  0  0  0  0  0  0
   -1.0527   -0.2604    5.4091 H   0  0  0  0  0  0  0  0  0  0  0  0
   -0.5720   -0.2417    7.1115 H   0  0  0  0  0  0  0  0  0  0  0  0
  1  2  1  0  0  0  0
  1  4  2  0  0  0  0
  1 14  1  0  0  0  0
  2  6  2  0  0  0  0
  2 15  1  0  0  0  0
  3  5  1  0  0  0  0
  3  7  2  0  0  0  0
  3 16  1  0  0  0  0
  4 10  1  0  0  0  0
  4 17  1  0  0  0  0
  5 11  2  0  0  0  0
  5 18  1  0  0  0  0
  6  8  1  0  0  0  0
  6 13  1  0  0  0  0
  7  9  1  0  0  0  0
  7 12  1  0  0  0  0
  8 10  2  0  0  0  0
  8 12  1  0  0  0  0
  9 19  1  0  0  0  0
  9 20  1  0  0  0  0
  9 21  1  0  0  0  0
 11 12  1  0  0  0  0
M  END
$$$$
