
  -OEChem-12122420533D

 19 19  0     0  0  0  0  0  0999 V2000
   -0.0931   -0.7595    1.0228 C   0  0  0  0  0  0  0  0  0  0  0  0
    1.1625    0.0486   -0.4248 C   0  0  0  0  0  0  0  0  0  0  0  0
   -0.3242    0.3167   -0.0698 C   0  0  0  0  0  0  0  0  0  0  0  0
   -1.3124   -0.1088   -1.1553 C   0  0  0  0  0  0  0  0  0  0  0  0
   -0.5313    2.8407   -0.5551 C   0  0  0  0  0  0  0  0  0  0  0  0
   -0.6096    1.7168    0.4858 C   0  0  0  0  0  0  0  0  0  0  0  0
    1.2772   -0.9768    0.5962 O   0  0  0  0  0  0  0  0  0  0  0  0
   -0.1398   -0.3959    2.0576 H   0  0  0  0  0  0  0  0  0  0  0  0
   -0.6948   -1.6723    0.9292 H   0  0  0  0  0  0  0  0  0  0  0  0
    1.3496   -0.3570   -1.4270 H   0  0  0  0  0  0  0  0  0  0  0  0
    1.8507    0.8825   -0.2352 H   0  0  0  0  0  0  0  0  0  0  0  0
   -2.3437   -0.0674   -0.7846 H   0  0  0  0  0  0  0  0  0  0  0  0
   -1.1129   -1.1348   -1.4823 H   0  0  0  0  0  0  0  0  0  0  0  0
   -1.2459    0.5376   -2.0365 H   0  0  0  0  0  0  0  0  0  0  0  0
    0.4360    2.8371   -1.0711 H   0  0  0  0  0  0  0  0  0  0  0  0
   -0.6474    3.8198   -0.0791 H   0  0  0  0  0  0  0  0  0  0  0  0
   -1.3140    2.7497   -1.3144 H   0  0  0  0  0  0  0  0  0  0  0  0
   -1.6037    1.7166    0.9532 H   0  0  0  0  0  0  0  0  0  0  0  0
    0.1074    1.9226    1.2905 H   0  0  0  0  0  0  0  0  0  0  0  0
  1  3  1  0  0  0  0
  1  7  1  0  0  0  0
  1  8  1  0  0  0  0
  1  9  1  0  0  0  0
  2  3  1  0  0  0  0
  2  7  1  0  0  0  0
  2 10  1  0  0  0  0
  2 11  1  0  0  0  0
  3  4  1  0  0  0  0
  3  6  1  0  0  0  0
  4 12  1  0  0  0  0
  4 13  1  0  0  0  0
  4 14  1  0  0  0  0
  5  6  1  0  0  0  0
  5 15  1  0  0  0  0
  5 16  1  0  0  0  0
  5 17  1  0  0  0  0
  6 18  1  0  0  0  0
  6 19  1  0  0  0  0
M  END
$$$$
