21
0 1 C9ClH8N3
C                     0.326546572906    -0.327339809545     0.978985814440
C                     1.643907266852    -0.295267199031     1.437232424006
C                     0.933260162010    -2.538462217025     6.841477627806
C                    -0.654342157491    -0.844791336953     1.826184680155
C                     1.971122555708    -3.236154031854     6.167671919748
C                     1.932410115310    -0.789066261990     2.709866933104
C                     0.381243292504    -1.695349424893     5.894857799725
C                     0.881463793912    -1.343129618523     3.468053080132
C                    -0.734304675850    -0.705096390450     6.006222566908
N                    -0.380008732655    -1.351220150688     3.033074466604
N                     2.079231157927    -2.861239725249     4.899380103430
N                     1.104768586238    -1.911676311891     4.742477076052
Cl                    3.554056346854    -0.633376717333     3.327386336725
H                     0.067719506163     0.052484827650    -0.004712301894
H                     2.440934968226     0.126380170535     0.832581991011
H                     0.631128290990    -2.627453736873     7.876434335898
H                    -1.699613624817    -0.866953315578     1.524508282544
H                     2.638777520627    -3.996682851686     6.554510515115
H                    -0.444909803952     0.272075796103     5.605965270461
H                    -1.616687782871    -1.036786539386     5.452790206572
H                    -1.001788325036    -0.577999454675     7.057811637530
