
  -OEChem-12122420533D

 30 31  0     0  0  0  0  0  0999 V2000
    2.5526   -0.8175   -0.1939 C   0  0  0  0  0  0  0  0  0  0  0  0
    1.4466   -0.4472    0.5766 C   0  0  0  0  0  0  0  0  0  0  0  0
    3.6273   -1.4623    0.4274 C   0  0  0  0  0  0  0  0  0  0  0  0
   -0.4230   -2.0438    9.5059 C   0  0  0  0  0  0  0  0  0  0  0  0
    0.7386   -1.2752    9.6186 C   0  0  0  0  0  0  0  0  0  0  0  0
    1.3940   -0.7083    1.9486 C   0  0  0  0  0  0  0  0  0  0  0  0
    3.5929   -1.7257    1.7964 C   0  0  0  0  0  0  0  0  0  0  0  0
   -0.6916   -2.6457    8.2758 C   0  0  0  0  0  0  0  0  0  0  0  0
    1.5833   -1.1153    8.5185 C   0  0  0  0  0  0  0  0  0  0  0  0
    2.4784   -1.3517    2.5682 C   0  0  0  0  0  0  0  0  0  0  0  0
    1.2075   -1.7846    7.3316 C   0  0  0  0  0  0  0  0  0  0  0  0
    1.5477   -1.4178    4.9056 C   0  0  0  0  0  0  0  0  0  0  0  0
    2.8229   -0.2567    8.5862 C   0  0  0  0  0  0  0  0  0  0  0  0
    0.1131   -2.5375    7.2131 N   0  0  0  0  0  0  0  0  0  0  0  0
    2.5269   -1.6413    3.9493 N   0  0  0  0  0  0  0  0  0  0  0  0
    2.0433   -1.7113    6.1962 N   0  0  0  0  0  0  0  0  0  0  0  0
    0.4234   -1.0054    4.6813 O   0  0  0  0  0  0  0  0  0  0  0  0
    2.5768   -0.6108   -1.2602 H   0  0  0  0  0  0  0  0  0  0  0  0
    0.6019    0.0498    0.1063 H   0  0  0  0  0  0  0  0  0  0  0  0
    4.4969   -1.7613   -0.1521 H   0  0  0  0  0  0  0  0  0  0  0  0
   -1.1001   -2.1729   10.3450 H   0  0  0  0  0  0  0  0  0  0  0  0
    0.9823   -0.7817   10.5570 H   0  0  0  0  0  0  0  0  0  0  0  0
    0.5277   -0.4336    2.5344 H   0  0  0  0  0  0  0  0  0  0  0  0
    4.4364   -2.2240    2.2718 H   0  0  0  0  0  0  0  0  0  0  0  0
   -1.5838   -3.2544    8.1371 H   0  0  0  0  0  0  0  0  0  0  0  0
    3.7418   -0.8459    8.4642 H   0  0  0  0  0  0  0  0  0  0  0  0
    2.8171    0.5147    7.8074 H   0  0  0  0  0  0  0  0  0  0  0  0
    2.8942    0.2472    9.5533 H   0  0  0  0  0  0  0  0  0  0  0  0
    3.3110   -2.2093    4.2437 H   0  0  0  0  0  0  0  0  0  0  0  0
    2.9993   -1.4292    6.3687 H   0  0  0  0  0  0  0  0  0  0  0  0
  1  2  1  0  0  0  0
  1  3  2  0  0  0  0
  1 18  1  0  0  0  0
  2  6  2  0  0  0  0
  2 19  1  0  0  0  0
  3  7  1  0  0  0  0
  3 20  1  0  0  0  0
  4  5  1  0  0  0  0
  4  8  2  0  0  0  0
  4 21  1  0  0  0  0
  5  9  2  0  0  0  0
  5 22  1  0  0  0  0
  6 10  1  0  0  0  0
  6 23  1  0  0  0  0
  7 10  2  0  0  0  0
  7 24  1  0  0  0  0
  8 14  1  0  0  0  0
  8 25  1  0  0  0  0
  9 11  1  0  0  0  0
  9 13  1  0  0  0  0
 10 15  1  0  0  0  0
 11 14  2  0  0  0  0
 11 16  1  0  0  0  0
 12 15  1  0  0  0  0
 12 16  1  0  0  0  0
 12 17  2  0  0  0  0
 13 26  1  0  0  0  0
 13 27  1  0  0  0  0
 13 28  1  0  0  0  0
 15 29  1  0  0  0  0
 16 30  1  0  0  0  0
M  END
$$$$
