
  -OEChem-12122420533D

 25 26  0     0  0  0  0  0  0999 V2000
    2.5081    5.9506   -9.4067 C   0  0  0  0  0  0  0  0  0  0  0  0
    1.3435    5.9541   -8.6315 C   0  0  0  0  0  0  0  0  0  0  0  0
    1.2929   11.5379   -6.7895 C   0  0  0  0  0  0  0  0  0  0  0  0
    3.2250    7.1351   -9.5498 C   0  0  0  0  0  0  0  0  0  0  0  0
    0.0379   11.2197   -7.3724 C   0  0  0  0  0  0  0  0  0  0  0  0
    0.9311    7.1471   -8.0289 C   0  0  0  0  0  0  0  0  0  0  0  0
    2.1036   10.4468   -7.0483 C   0  0  0  0  0  0  0  0  0  0  0  0
    1.7071    8.3070   -8.2828 C   0  0  0  0  0  0  0  0  0  0  0  0
    3.5301   10.1844   -6.6822 C   0  0  0  0  0  0  0  0  0  0  0  0
   -0.9532    6.1283   -6.9831 C   0  0  0  0  0  0  0  0  0  0  0  0
    2.8203    8.2929   -9.0060 N   0  0  0  0  0  0  0  0  0  0  0  0
    0.0460   10.0218   -7.9459 N   0  0  0  0  0  0  0  0  0  0  0  0
    1.3153    9.5549   -7.7376 N   0  0  0  0  0  0  0  0  0  0  0  0
   -0.1278    7.2706   -7.1933 O   0  0  0  0  0  0  0  0  0  0  0  0
    2.8523    5.0365   -9.8820 H   0  0  0  0  0  0  0  0  0  0  0  0
    0.7852    5.0362   -8.4872 H   0  0  0  0  0  0  0  0  0  0  0  0
    1.5721   12.4330   -6.2497 H   0  0  0  0  0  0  0  0  0  0  0  0
    4.1456    7.1705  -10.1280 H   0  0  0  0  0  0  0  0  0  0  0  0
   -0.8668   11.8154   -7.4002 H   0  0  0  0  0  0  0  0  0  0  0  0
    3.6483    9.2053   -6.2062 H   0  0  0  0  0  0  0  0  0  0  0  0
    4.1753   10.1972   -7.5647 H   0  0  0  0  0  0  0  0  0  0  0  0
    3.8718   10.9496   -5.9811 H   0  0  0  0  0  0  0  0  0  0  0  0
   -1.7496    6.4613   -6.3174 H   0  0  0  0  0  0  0  0  0  0  0  0
   -0.3955    5.3126   -6.5056 H   0  0  0  0  0  0  0  0  0  0  0  0
   -1.3893    5.7758   -7.9254 H   0  0  0  0  0  0  0  0  0  0  0  0
  1  2  1  0  0  0  0
  1  4  2  0  0  0  0
  1 15  1  0  0  0  0
  2  6  2  0  0  0  0
  2 16  1  0  0  0  0
  3  5  1  0  0  0  0
  3  7  2  0  0  0  0
  3 17  1  0  0  0  0
  4 11  1  0  0  0  0
  4 18  1  0  0  0  0
  5 12  2  0  0  0  0
  5 19  1  0  0  0  0
  6  8  1  0  0  0  0
  6 14  1  0  0  0  0
  7  9  1  0  0  0  0
  7 13  1  0  0  0  0
  8 11  2  0  0  0  0
  8 13  1  0  0  0  0
  9 20  1  0  0  0  0
  9 21  1  0  0  0  0
  9 22  1  0  0  0  0
 10 14  1  0  0  0  0
 10 23  1  0  0  0  0
 10 24  1  0  0  0  0
 10 25  1  0  0  0  0
 12 13  1  0  0  0  0
M  END
$$$$
