
  -OEChem-12102412493D

 15 15  0     0  0  0  0  0  0999 V2000
    0.5907   -0.5279   -2.1061 C   0  0  0  0  0  0  0  0  0  0  0  0
    0.1216   -0.7667   -0.7653 C   0  0  0  0  0  0  0  0  0  0  0  0
    0.4713   -1.7158   -2.7645 C   0  0  0  0  0  0  0  0  0  0  0  0
   -0.2502   -2.0812   -0.7043 C   0  0  0  0  0  0  0  0  0  0  0  0
    0.1624   -4.0874    0.7873 C   0  0  0  0  0  0  0  0  0  0  0  0
   -0.7918   -2.9488    0.3830 C   0  0  0  0  0  0  0  0  0  0  0  0
   -0.0386   -2.6746   -1.9270 O   0  0  0  0  0  0  0  0  0  0  0  0
    0.9631    0.4002   -2.5198 H   0  0  0  0  0  0  0  0  0  0  0  0
    0.0670   -0.0534    0.0469 H   0  0  0  0  0  0  0  0  0  0  0  0
    0.6873   -2.0380   -3.7731 H   0  0  0  0  0  0  0  0  0  0  0  0
    0.3670   -4.7435   -0.0636 H   0  0  0  0  0  0  0  0  0  0  0  0
   -0.2769   -4.6925    1.5873 H   0  0  0  0  0  0  0  0  0  0  0  0
    1.1173   -3.6875    1.1430 H   0  0  0  0  0  0  0  0  0  0  0  0
   -1.0003   -2.3081    1.2456 H   0  0  0  0  0  0  0  0  0  0  0  0
   -1.7525   -3.3736    0.0654 H   0  0  0  0  0  0  0  0  0  0  0  0
  1  2  1  0  0  0  0
  1  3  2  0  0  0  0
  1  8  1  0  0  0  0
  2  4  2  0  0  0  0
  2  9  1  0  0  0  0
  3  7  1  0  0  0  0
  3 10  1  0  0  0  0
  4  6  1  0  0  0  0
  4  7  1  0  0  0  0
  5  6  1  0  0  0  0
  5 11  1  0  0  0  0
  5 12  1  0  0  0  0
  5 13  1  0  0  0  0
  6 14  1  0  0  0  0
  6 15  1  0  0  0  0
M  END
$$$$
