25
0 1 C10H11N3O
C                     2.508081433680     5.950558114486    -9.406747443730
C                     1.343545176095     5.954148010349    -8.631540465182
C                     1.292892090068    11.537910454997    -6.789516812597
C                     3.225012417354     7.135052481075    -9.549846618979
C                     0.037929834929    11.219665741174    -7.372424946829
C                     0.931084291156     7.147069603394    -8.028927189819
C                     2.103638186744    10.446785253190    -7.048270926970
C                     1.707128565637     8.307048068247    -8.282819028185
C                     3.530139008045    10.184380138861    -6.682249326971
C                    -0.953197342056     6.128260817262    -6.983053285990
N                     2.820331072424     8.292922661586    -9.006001769636
N                     0.045951499971    10.021770993620    -7.945856141647
N                     1.315305380243     9.554892789359    -7.737592999863
O                    -0.127765889854     7.270570552477    -7.193344372432
H                     2.852251041772     5.036517965107    -9.882046206815
H                     0.785154896263     5.036162701986    -8.487212651576
H                     1.572119239914    12.432977526999    -6.249702669025
H                     4.145617708546     7.170540877566   -10.128044266395
H                    -0.866790657087    11.815364760643    -7.400244126176
H                     3.648258383648     9.205332495356    -6.206198481359
H                     4.175308508310    10.197233599303    -7.564731660011
H                     3.871803385386    10.949595743662    -5.981095751249
H                    -1.749601471588     6.461312015275    -6.317396859351
H                    -0.395539575778     5.312614835956    -6.505609365496
H                    -1.389275892751     5.775758329719    -7.925406162426
