
  -OEChem-12102412493D

 18 18  0     0  0  0  0  0  0999 V2000
    1.8717   -1.0112   -0.1266 C   0  0  0  0  0  0  0  0  0  0  0  0
    0.7857   -0.4433    0.5466 C   0  0  0  0  0  0  0  0  0  0  0  0
    2.9006   -1.6218    0.5978 C   0  0  0  0  0  0  0  0  0  0  0  0
    0.7331   -0.4878    1.9436 C   0  0  0  0  0  0  0  0  0  0  0  0
    2.8786   -1.6832    1.9986 C   0  0  0  0  0  0  0  0  0  0  0  0
    1.7755   -1.1007    2.6288 C   0  0  0  0  0  0  0  0  0  0  0  0
    4.9640   -1.2526    3.3759 C   0  0  0  0  0  0  0  0  0  0  0  0
    3.9999   -2.3047    2.7980 C   0  0  0  0  0  0  0  0  0  0  0  0
    1.7150   -1.1374    3.9917 F   0  0  0  0  0  0  0  0  0  0  0  0
    1.9165   -0.9819   -1.2118 H   0  0  0  0  0  0  0  0  0  0  0  0
   -0.0192    0.0311   -0.0081 H   0  0  0  0  0  0  0  0  0  0  0  0
    3.7420   -2.0655    0.0698 H   0  0  0  0  0  0  0  0  0  0  0  0
   -0.0950   -0.0599    2.5007 H   0  0  0  0  0  0  0  0  0  0  0  0
    5.4174   -0.6580    2.5759 H   0  0  0  0  0  0  0  0  0  0  0  0
    5.7683   -1.7339    3.9425 H   0  0  0  0  0  0  0  0  0  0  0  0
    4.4372   -0.5687    4.0478 H   0  0  0  0  0  0  0  0  0  0  0  0
    3.5825   -2.8987    3.6175 H   0  0  0  0  0  0  0  0  0  0  0  0
    4.5536   -2.9952    2.1532 H   0  0  0  0  0  0  0  0  0  0  0  0
  1  2  1  0  0  0  0
  1  3  2  0  0  0  0
  1 10  1  0  0  0  0
  2  4  2  0  0  0  0
  2 11  1  0  0  0  0
  3  5  1  0  0  0  0
  3 12  1  0  0  0  0
  4  6  1  0  0  0  0
  4 13  1  0  0  0  0
  5  6  2  0  0  0  0
  5  8  1  0  0  0  0
  6  9  1  0  0  0  0
  7  8  1  0  0  0  0
  7 14  1  0  0  0  0
  7 15  1  0  0  0  0
  7 16  1  0  0  0  0
  8 17  1  0  0  0  0
  8 18  1  0  0  0  0
M  END
$$$$
