
  -OEChem-12102412493D

 21 21  0     0  0  0  0  0  0999 V2000
    1.9265   -0.9828   -0.1203 C   0  0  0  0  0  0  0  0  0  0  0  0
    0.8014   -0.4624    0.5252 C   0  0  0  0  0  0  0  0  0  0  0  0
    2.9630   -1.5415    0.6294 C   0  0  0  0  0  0  0  0  0  0  0  0
    0.6844   -0.4891    1.9223 C   0  0  0  0  0  0  0  0  0  0  0  0
    1.7203   -1.0546    2.6975 C   0  0  0  0  0  0  0  0  0  0  0  0
    2.8286   -1.5567    2.0126 C   0  0  0  0  0  0  0  0  0  0  0  0
   -0.5528    0.0779    2.5829 C   0  0  0  0  0  0  0  0  0  0  0  0
    2.3635    0.1482    4.8341 C   0  0  0  0  0  0  0  0  0  0  0  0
    1.6892   -1.0879    4.2095 C   0  0  0  0  0  0  0  0  0  0  0  0
    3.8478   -2.0969    2.7445 F   0  0  0  0  0  0  0  0  0  0  0  0
    1.9977   -0.9526   -1.2041 H   0  0  0  0  0  0  0  0  0  0  0  0
   -0.0010   -0.0273   -0.0655 H   0  0  0  0  0  0  0  0  0  0  0  0
    3.8549   -1.9553    0.1690 H   0  0  0  0  0  0  0  0  0  0  0  0
   -1.1280   -0.7026    3.0941 H   0  0  0  0  0  0  0  0  0  0  0  0
   -0.3039    0.8370    3.3317 H   0  0  0  0  0  0  0  0  0  0  0  0
   -1.2095    0.5419    1.8428 H   0  0  0  0  0  0  0  0  0  0  0  0
    3.4163    0.2024    4.5414 H   0  0  0  0  0  0  0  0  0  0  0  0
    2.3148    0.1072    5.9276 H   0  0  0  0  0  0  0  0  0  0  0  0
    1.8775    1.0731    4.5062 H   0  0  0  0  0  0  0  0  0  0  0  0
    0.6544   -1.1549    4.5568 H   0  0  0  0  0  0  0  0  0  0  0  0
    2.1989   -1.9884    4.5633 H   0  0  0  0  0  0  0  0  0  0  0  0
  1  2  1  0  0  0  0
  1  3  2  0  0  0  0
  1 11  1  0  0  0  0
  2  4  2  0  0  0  0
  2 12  1  0  0  0  0
  3  6  1  0  0  0  0
  3 13  1  0  0  0  0
  4  5  1  0  0  0  0
  4  7  1  0  0  0  0
  5  6  2  0  0  0  0
  5  9  1  0  0  0  0
  6 10  1  0  0  0  0
  7 14  1  0  0  0  0
  7 15  1  0  0  0  0
  7 16  1  0  0  0  0
  8  9  1  0  0  0  0
  8 17  1  0  0  0  0
  8 18  1  0  0  0  0
  8 19  1  0  0  0  0
  9 20  1  0  0  0  0
  9 21  1  0  0  0  0
M  END
$$$$
