
  -OEChem-12102412493D

 25 26  0     0  0  0  0  0  0999 V2000
   -1.6268   -2.6032    2.5606 C   0  0  0  0  0  0  0  0  0  0  0  0
   -2.1815   -1.4185    2.0640 C   0  0  0  0  0  0  0  0  0  0  0  0
   -2.2871   -3.3017    3.5760 C   0  0  0  0  0  0  0  0  0  0  0  0
   -3.3875   -0.9397    2.5829 C   0  0  0  0  0  0  0  0  0  0  0  0
   -3.4920   -2.8192    4.0973 C   0  0  0  0  0  0  0  0  0  0  0  0
   -7.0301   -3.3823    6.3753 C   0  0  0  0  0  0  0  0  0  0  0  0
   -6.2368   -2.2704    6.2143 C   0  0  0  0  0  0  0  0  0  0  0  0
   -4.0492   -1.6328    3.6053 C   0  0  0  0  0  0  0  0  0  0  0  0
   -6.9021   -3.0562    4.2436 C   0  0  0  0  0  0  0  0  0  0  0  0
   -7.0496   -3.1797    2.7618 C   0  0  0  0  0  0  0  0  0  0  0  0
   -5.3432   -1.0699    4.1722 C   0  0  0  0  0  0  0  0  0  0  0  0
   -7.4388   -3.8626    5.1466 N   0  0  0  0  0  0  0  0  0  0  0  0
   -6.1678   -2.0588    4.8454 N   0  0  0  0  0  0  0  0  0  0  0  0
   -0.6921   -2.9811    2.1547 H   0  0  0  0  0  0  0  0  0  0  0  0
   -1.6800   -0.8726    1.2690 H   0  0  0  0  0  0  0  0  0  0  0  0
   -1.8667   -4.2266    3.9623 H   0  0  0  0  0  0  0  0  0  0  0  0
   -3.8190   -0.0227    2.1852 H   0  0  0  0  0  0  0  0  0  0  0  0
   -4.0040   -3.3725    4.8796 H   0  0  0  0  0  0  0  0  0  0  0  0
   -7.3333   -3.8589    7.2987 H   0  0  0  0  0  0  0  0  0  0  0  0
   -5.7321   -1.6210    6.9162 H   0  0  0  0  0  0  0  0  0  0  0  0
   -7.5339   -2.2980    2.3248 H   0  0  0  0  0  0  0  0  0  0  0  0
   -6.0801   -3.3057    2.2672 H   0  0  0  0  0  0  0  0  0  0  0  0
   -7.6685   -4.0524    2.5488 H   0  0  0  0  0  0  0  0  0  0  0  0
   -5.1212   -0.2792    4.8959 H   0  0  0  0  0  0  0  0  0  0  0  0
   -5.9262   -0.6054    3.3708 H   0  0  0  0  0  0  0  0  0  0  0  0
  1  2  1  0  0  0  0
  1  3  2  0  0  0  0
  1 14  1  0  0  0  0
  2  4  2  0  0  0  0
  2 15  1  0  0  0  0
  3  5  1  0  0  0  0
  3 16  1  0  0  0  0
  4  8  1  0  0  0  0
  4 17  1  0  0  0  0
  5  8  2  0  0  0  0
  5 18  1  0  0  0  0
  6  7  2  0  0  0  0
  6 12  1  0  0  0  0
  6 19  1  0  0  0  0
  7 13  1  0  0  0  0
  7 20  1  0  0  0  0
  8 11  1  0  0  0  0
  9 10  1  0  0  0  0
  9 12  2  0  0  0  0
  9 13  1  0  0  0  0
 10 21  1  0  0  0  0
 10 22  1  0  0  0  0
 10 23  1  0  0  0  0
 11 13  1  0  0  0  0
 11 24  1  0  0  0  0
 11 25  1  0  0  0  0
M  END
$$$$
