18
0 1 C8F2H8
C                     1.883137308660    -1.040353966384    -0.126755447138
C                     2.924343118060    -1.629454913343     0.598068283427
C                     0.806323736267    -0.459607108300     0.551270348632
C                     2.888430427281    -1.641686458268     1.995115815572
C                     0.767871111296    -0.470434672000     1.948262417713
C                     1.810691519741    -1.059636242006     2.672535460014
C                     1.044156565027    -2.365418697335     4.725642715998
C                     1.738136630357    -1.130604160686     4.182495613265
F                     1.083004718212    -0.009520601826     4.668307328324
F                     3.018738950131    -1.078613743304     4.711074298051
H                     1.912740624848    -1.030213126534    -1.213188857959
H                     3.766785447958    -2.075965806447     0.076471123542
H                    -0.001946282030     0.005620602825    -0.006769843433
H                     3.701756548614    -2.088534357879     2.558983386457
H                    -0.061906007661    -0.009746994420     2.475855218897
H                     1.039899508996    -2.329509260996     5.818107318242
H                     1.571247505128    -3.261623013497     4.390788680021
H                     0.016801625152    -2.403080122999     4.356511363786
