
  -OEChem-12122420533D

 25 26  0     0  0  0  0  0  0999 V2000
   -0.0991   -0.2867    0.8674 C   0  0  0  0  0  0  0  0  0  0  0  0
    1.1356   -0.0331    1.4742 C   0  0  0  0  0  0  0  0  0  0  0  0
    0.7516   -3.5265    6.1895 C   0  0  0  0  0  0  0  0  0  0  0  0
   -0.9897   -1.1560    1.4908 C   0  0  0  0  0  0  0  0  0  0  0  0
    1.1012   -2.2126    6.5990 C   0  0  0  0  0  0  0  0  0  0  0  0
    1.4361   -0.6547    2.6906 C   0  0  0  0  0  0  0  0  0  0  0  0
    0.4636   -3.4244    4.8400 C   0  0  0  0  0  0  0  0  0  0  0  0
    0.4358   -1.4808    3.2644 C   0  0  0  0  0  0  0  0  0  0  0  0
    0.0438   -4.4665    3.8523 C   0  0  0  0  0  0  0  0  0  0  0  0
    3.6079    0.3207    2.8100 C   0  0  0  0  0  0  0  0  0  0  0  0
   -0.7272   -1.7301    2.6747 N   0  0  0  0  0  0  0  0  0  0  0  0
    1.0498   -1.3481    5.5922 N   0  0  0  0  0  0  0  0  0  0  0  0
    0.6624   -2.1018    4.5178 N   0  0  0  0  0  0  0  0  0  0  0  0
    2.6204   -0.5586    3.3410 O   0  0  0  0  0  0  0  0  0  0  0  0
   -0.3553    0.1801   -0.0793 H   0  0  0  0  0  0  0  0  0  0  0  0
    1.8531    0.6210    0.9918 H   0  0  0  0  0  0  0  0  0  0  0  0
    0.7182   -4.4272    6.7880 H   0  0  0  0  0  0  0  0  0  0  0  0
   -1.9516   -1.3948    1.0426 H   0  0  0  0  0  0  0  0  0  0  0  0
    1.3837   -1.8629    7.5850 H   0  0  0  0  0  0  0  0  0  0  0  0
   -0.9941   -4.3229    3.5405 H   0  0  0  0  0  0  0  0  0  0  0  0
    0.6627   -4.4355    2.9495 H   0  0  0  0  0  0  0  0  0  0  0  0
    0.1457   -5.4564    4.3036 H   0  0  0  0  0  0  0  0  0  0  0  0
    4.4485    0.2687    3.5021 H   0  0  0  0  0  0  0  0  0  0  0  0
    3.2369    1.3516    2.7639 H   0  0  0  0  0  0  0  0  0  0  0  0
    3.9358    0.0007    1.8128 H   0  0  0  0  0  0  0  0  0  0  0  0
  1  2  1  0  0  0  0
  1  4  2  0  0  0  0
  1 15  1  0  0  0  0
  2  6  2  0  0  0  0
  2 16  1  0  0  0  0
  3  5  1  0  0  0  0
  3  7  2  0  0  0  0
  3 17  1  0  0  0  0
  4 11  1  0  0  0  0
  4 18  1  0  0  0  0
  5 12  2  0  0  0  0
  5 19  1  0  0  0  0
  6  8  1  0  0  0  0
  6 14  1  0  0  0  0
  7  9  1  0  0  0  0
  7 13  1  0  0  0  0
  8 11  2  0  0  0  0
  8 13  1  0  0  0  0
  9 20  1  0  0  0  0
  9 21  1  0  0  0  0
  9 22  1  0  0  0  0
 10 14  1  0  0  0  0
 10 23  1  0  0  0  0
 10 24  1  0  0  0  0
 10 25  1  0  0  0  0
 12 13  1  0  0  0  0
M  END
$$$$
