18
0 1 C7H9NO
C                    -0.013400354506    -3.501876759203    -3.623968885090
C                    -0.467938061546    -2.547254094206    -2.664220990637
C                    -0.691307678081    -3.725025433669    -4.791736732648
C                    -1.612944018151    -1.839165381258    -2.924032252907
C                    -1.907949205669    -2.997375886216    -5.102575018729
C                    -2.032288524915     0.643096718423    -2.588204832494
C                    -2.183787017815    -0.779819096613    -2.018580813702
N                    -2.279400724778    -2.078274283819    -4.098146088827
O                    -2.604343049344    -3.113227927975    -6.114931727051
H                     0.894829407934    -4.063764852772    -3.416777470035
H                     0.074656162128    -2.375204051811    -1.741621786174
H                    -0.357516552742    -4.448346856592    -5.527841505324
H                    -0.977973159763     0.882809994277    -2.755550648239
H                    -2.446718192500     1.378655417260    -1.891965916031
H                    -2.555479593018     0.755814808696    -3.543323474124
H                    -3.244782604947    -0.992791582190    -1.834571953732
H                    -1.678187223681    -0.845649106752    -1.051649042275
H                    -3.132654256217    -1.567636611513    -4.306282492670
