
  -OEChem-12102412493D

 22 22  0     0  0  0  0  0  0999 V2000
    0.8720   -1.6703   -0.2636 C   0  0  0  0  0  0  0  0  0  0  0  0
   -0.4475   -2.0011   -0.1664 C   0  0  0  0  0  0  0  0  0  0  0  0
    0.3628    0.6564    0.2927 C   0  0  0  0  0  0  0  0  0  0  0  0
    1.3001   -0.3256   -0.0337 C   0  0  0  0  0  0  0  0  0  0  0  0
   -1.0520    0.3008    0.3978 C   0  0  0  0  0  0  0  0  0  0  0  0
    0.7992    2.0827    0.5370 C   0  0  0  0  0  0  0  0  0  0  0  0
    2.7827   -0.0729   -0.1681 C   0  0  0  0  0  0  0  0  0  0  0  0
    0.1638    4.3664    1.1055 C   0  0  0  0  0  0  0  0  0  0  0  0
   -1.3553   -1.0427    0.1516 N   0  0  0  0  0  0  0  0  0  0  0  0
   -0.1714    2.9742    0.8582 N   0  0  0  0  0  0  0  0  0  0  0  0
   -2.0080    1.0492    0.6784 O   0  0  0  0  0  0  0  0  0  0  0  0
    1.9876    2.4265    0.4498 O   0  0  0  0  0  0  0  0  0  0  0  0
    1.5955   -2.4361   -0.5171 H   0  0  0  0  0  0  0  0  0  0  0  0
   -0.8300   -3.0033   -0.3299 H   0  0  0  0  0  0  0  0  0  0  0  0
    2.9857    0.6795   -0.9326 H   0  0  0  0  0  0  0  0  0  0  0  0
    3.2980   -1.0026   -0.4246 H   0  0  0  0  0  0  0  0  0  0  0  0
    3.1988    0.3316    0.7565 H   0  0  0  0  0  0  0  0  0  0  0  0
    0.8712    4.4582    1.9361 H   0  0  0  0  0  0  0  0  0  0  0  0
   -0.7532    4.9058    1.3520 H   0  0  0  0  0  0  0  0  0  0  0  0
    0.6253    4.8229    0.2235 H   0  0  0  0  0  0  0  0  0  0  0  0
   -2.3438   -1.2610    0.2307 H   0  0  0  0  0  0  0  0  0  0  0  0
   -1.1307    2.6362    0.9092 H   0  0  0  0  0  0  0  0  0  0  0  0
  1  2  2  0  0  0  0
  1  4  1  0  0  0  0
  1 13  1  0  0  0  0
  2  9  1  0  0  0  0
  2 14  1  0  0  0  0
  3  4  2  0  0  0  0
  3  5  1  0  0  0  0
  3  6  1  0  0  0  0
  4  7  1  0  0  0  0
  5  9  1  0  0  0  0
  5 11  2  0  0  0  0
  6 10  1  0  0  0  0
  6 12  2  0  0  0  0
  7 15  1  0  0  0  0
  7 16  1  0  0  0  0
  7 17  1  0  0  0  0
  8 10  1  0  0  0  0
  8 18  1  0  0  0  0
  8 19  1  0  0  0  0
  8 20  1  0  0  0  0
  9 21  1  0  0  0  0
 10 22  1  0  0  0  0
M  END
$$$$
