26
0 1 C12H13N
C                    -1.123596420347     4.640563424436    -1.139941873576
C                    -0.036999266221     4.224892058401    -1.914362526540
C                    -1.632875726504     3.788367167896    -0.151424090584
C                     0.533956845072     2.964478743523    -1.700417804840
C                    -1.058328899123     2.533265453395     0.058018634829
C                     0.032179959403     2.106754252040    -0.714874452864
C                     1.154300689721     0.565555540352     0.931579955573
C                     0.576099925451    -0.251236654669     1.827835353212
C                    -0.877147110192    -1.160228961469     0.158006017897
C                    -0.361026304716    -0.380498597291    -0.808648792761
C                     0.640977046188     0.721237560109    -0.485015938369
C                    -0.777841365581    -0.517302310018    -2.246616868342
N                    -0.536222215669    -1.037767639226     1.514627019990
H                    -1.570229024209     5.618221755509    -1.303220703161
H                     0.365178086233     4.879019962624    -2.684342197349
H                    -2.478285211232     4.105437230022     0.454792426491
H                     1.377681593606     2.643123192674    -2.308653757403
H                    -1.454440039206     1.873057223645     0.825554041394
H                     1.988243449346     1.186300654788     1.245193225780
H                     0.924711193045    -0.324583796423     2.853805706207
H                    -1.619618006423    -1.922945574518    -0.060300208832
H                     1.485704299780     0.636614271133    -1.186294055948
H                    -1.233231354853     0.409151188410    -2.617373265558
H                    -1.496812099856    -1.330347877469    -2.386884363419
H                     0.092285346353    -0.719509785933    -2.886308733589
H                    -0.680170461044    -1.859531771647     2.085909289657
