
  -OEChem-12122420533D

 21 22  0     0  0  0  0  0  0999 V2000
    0.6824   -1.7748    0.9913 C   0  0  0  0  0  0  0  0  0  0  0  0
    0.1964   -0.4637    0.9013 C   0  0  0  0  0  0  0  0  0  0  0  0
    0.9052   -2.3394    2.2420 C   0  0  0  0  0  0  0  0  0  0  0  0
    1.0091   -2.4769    6.8268 C   0  0  0  0  0  0  0  0  0  0  0  0
   -0.0442    0.2223    2.0899 C   0  0  0  0  0  0  0  0  0  0  0  0
    1.4134   -3.6004    6.0623 C   0  0  0  0  0  0  0  0  0  0  0  0
    0.6418   -1.5106    5.9080 C   0  0  0  0  0  0  0  0  0  0  0  0
    0.6263   -1.5516    3.3734 C   0  0  0  0  0  0  0  0  0  0  0  0
    0.1359   -0.1281    6.1774 C   0  0  0  0  0  0  0  0  0  0  0  0
    0.1636   -0.3030    3.3064 N   0  0  0  0  0  0  0  0  0  0  0  0
    1.3128   -3.3704    4.7613 N   0  0  0  0  0  0  0  0  0  0  0  0
    0.8388   -2.0875    4.6650 N   0  0  0  0  0  0  0  0  0  0  0  0
    0.8862   -2.3523    0.0934 H   0  0  0  0  0  0  0  0  0  0  0  0
    0.0102    0.0108   -0.0573 H   0  0  0  0  0  0  0  0  0  0  0  0
    1.2794   -3.3470    2.3673 H   0  0  0  0  0  0  0  0  0  0  0  0
    0.9844   -2.3745    7.9034 H   0  0  0  0  0  0  0  0  0  0  0  0
   -0.4221    1.2434    2.0751 H   0  0  0  0  0  0  0  0  0  0  0  0
    1.7723   -4.5631    6.4065 H   0  0  0  0  0  0  0  0  0  0  0  0
    0.7841    0.6331    5.7370 H   0  0  0  0  0  0  0  0  0  0  0  0
   -0.8606    0.0272    5.7576 H   0  0  0  0  0  0  0  0  0  0  0  0
    0.0950    0.0196    7.2600 H   0  0  0  0  0  0  0  0  0  0  0  0
  1  2  1  0  0  0  0
  1  3  2  0  0  0  0
  1 13  1  0  0  0  0
  2  5  2  0  0  0  0
  2 14  1  0  0  0  0
  3  8  1  0  0  0  0
  3 15  1  0  0  0  0
  4  6  1  0  0  0  0
  4  7  2  0  0  0  0
  4 16  1  0  0  0  0
  5 10  1  0  0  0  0
  5 17  1  0  0  0  0
  6 11  2  0  0  0  0
  6 18  1  0  0  0  0
  7  9  1  0  0  0  0
  7 12  1  0  0  0  0
  8 10  2  0  0  0  0
  8 12  1  0  0  0  0
  9 19  1  0  0  0  0
  9 20  1  0  0  0  0
  9 21  1  0  0  0  0
 11 12  1  0  0  0  0
M  END
$$$$
