
  -OEChem-12102412493D

 21 22  0     0  0  0  0  0  0999 V2000
    0.3265   -0.3273    0.9790 C   0  0  0  0  0  0  0  0  0  0  0  0
    1.6439   -0.2953    1.4372 C   0  0  0  0  0  0  0  0  0  0  0  0
    0.9333   -2.5385    6.8415 C   0  0  0  0  0  0  0  0  0  0  0  0
   -0.6543   -0.8448    1.8262 C   0  0  0  0  0  0  0  0  0  0  0  0
    1.9711   -3.2362    6.1677 C   0  0  0  0  0  0  0  0  0  0  0  0
    1.9324   -0.7891    2.7099 C   0  0  0  0  0  0  0  0  0  0  0  0
    0.3812   -1.6953    5.8949 C   0  0  0  0  0  0  0  0  0  0  0  0
    0.8815   -1.3431    3.4681 C   0  0  0  0  0  0  0  0  0  0  0  0
   -0.7343   -0.7051    6.0062 C   0  0  0  0  0  0  0  0  0  0  0  0
   -0.3800   -1.3512    3.0331 N   0  0  0  0  0  0  0  0  0  0  0  0
    2.0792   -2.8612    4.8994 N   0  0  0  0  0  0  0  0  0  0  0  0
    1.1048   -1.9117    4.7425 N   0  0  0  0  0  0  0  0  0  0  0  0
    3.5541   -0.6334    3.3274 Cl  0  0  0  0  0  0  0  0  0  0  0  0
    0.0677    0.0525   -0.0047 H   0  0  0  0  0  0  0  0  0  0  0  0
    2.4409    0.1264    0.8326 H   0  0  0  0  0  0  0  0  0  0  0  0
    0.6311   -2.6275    7.8764 H   0  0  0  0  0  0  0  0  0  0  0  0
   -1.6996   -0.8670    1.5245 H   0  0  0  0  0  0  0  0  0  0  0  0
    2.6388   -3.9967    6.5545 H   0  0  0  0  0  0  0  0  0  0  0  0
   -0.4449    0.2721    5.6060 H   0  0  0  0  0  0  0  0  0  0  0  0
   -1.6167   -1.0368    5.4528 H   0  0  0  0  0  0  0  0  0  0  0  0
   -1.0018   -0.5780    7.0578 H   0  0  0  0  0  0  0  0  0  0  0  0
  1  2  1  0  0  0  0
  1  4  2  0  0  0  0
  1 14  1  0  0  0  0
  2  6  2  0  0  0  0
  2 15  1  0  0  0  0
  3  5  1  0  0  0  0
  3  7  2  0  0  0  0
  3 16  1  0  0  0  0
  4 10  1  0  0  0  0
  4 17  1  0  0  0  0
  5 11  2  0  0  0  0
  5 18  1  0  0  0  0
  6  8  1  0  0  0  0
  6 13  1  0  0  0  0
  7  9  1  0  0  0  0
  7 12  1  0  0  0  0
  8 10  2  0  0  0  0
  8 12  1  0  0  0  0
  9 19  1  0  0  0  0
  9 20  1  0  0  0  0
  9 21  1  0  0  0  0
 11 12  1  0  0  0  0
M  END
$$$$
