25
0 1 C10H11N3O
C                    -3.681198585491    -8.998041933659     2.010462505025
C                    -2.776338422441    -8.257639665229     1.244477132595
C                     2.169233993633   -11.183453403799     1.184979018829
C                    -3.234421971342   -10.144798212680     2.665281768690
C                     2.168526055069   -10.835726999879     2.560526763542
C                    -1.449792169930    -8.694604439582     1.167612126580
C                     0.904575280498   -10.852322870348     0.727304804376
C                    -1.103697595065    -9.876425011311     1.862795657306
C                     0.275044390294   -10.993627425756    -0.622009329376
C                    -0.768422323446    -6.834241330537    -0.166812378658
N                    -1.968727145103   -10.578064144166     2.583089509236
N                     0.999821309843   -10.330703749608     2.946143557523
N                     0.237732708432   -10.344399046324     1.812823109047
O                    -0.457957588849    -8.068237722176     0.478433688258
H                    -4.717682345552    -8.684153067961     2.095622141563
H                    -3.101488195058    -7.357297373783     0.735406481012
H                     2.970053837108   -11.624216839717     0.606053694539
H                    -3.909767394579   -10.742571421603     3.273477890084
H                     2.969802663145   -10.930966911936     3.283666588721
H                    -0.696178870725   -11.495882846376    -0.559629988575
H                     0.119213512987   -10.017102851565    -1.092056749493
H                     0.922750496227   -11.587560729042    -1.270657206699
H                     0.164010819253    -6.496639425475    -0.619572092605
H                    -1.115466834904    -6.086173215822     0.555759898671
H                    -1.525050551599    -6.972717312043    -0.948724064216
