
  -OEChem-12102412493D

 24 24  0     0  0  0  0  0  0999 V2000
    1.8878   -0.9617   -0.1679 C   0  0  0  0  0  0  0  0  0  0  0  0
    0.7491   -0.5029    0.5000 C   0  0  0  0  0  0  0  0  0  0  0  0
    2.9462   -1.4970    0.5695 C   0  0  0  0  0  0  0  0  0  0  0  0
    0.6907   -0.5880    1.8928 C   0  0  0  0  0  0  0  0  0  0  0  0
    2.8989   -1.5862    1.9690 C   0  0  0  0  0  0  0  0  0  0  0  0
    1.7479   -1.1252    2.6430 C   0  0  0  0  0  0  0  0  0  0  0  0
    3.8666   -3.7445    2.8908 C   0  0  0  0  0  0  0  0  0  0  0  0
    2.2218    0.1386    4.7929 C   0  0  0  0  0  0  0  0  0  0  0  0
    4.0607   -2.2286    2.7012 C   0  0  0  0  0  0  0  0  0  0  0  0
    1.6394   -1.1364    4.1552 C   0  0  0  0  0  0  0  0  0  0  0  0
    1.9521   -0.9023   -1.2515 H   0  0  0  0  0  0  0  0  0  0  0  0
   -0.0854   -0.0844   -0.0572 H   0  0  0  0  0  0  0  0  0  0  0  0
    3.8336   -1.8543    0.0499 H   0  0  0  0  0  0  0  0  0  0  0  0
   -0.1959   -0.2312    2.4141 H   0  0  0  0  0  0  0  0  0  0  0  0
    2.9627   -3.9580    3.4707 H   0  0  0  0  0  0  0  0  0  0  0  0
    4.7205   -4.1884    3.4146 H   0  0  0  0  0  0  0  0  0  0  0  0
    3.7607   -4.2444    1.9226 H   0  0  0  0  0  0  0  0  0  0  0  0
    3.2823    0.2550    4.5469 H   0  0  0  0  0  0  0  0  0  0  0  0
    2.1258    0.1123    5.8841 H   0  0  0  0  0  0  0  0  0  0  0  0
    1.7001    1.0278    4.4244 H   0  0  0  0  0  0  0  0  0  0  0  0
    4.9809   -2.0568    2.1318 H   0  0  0  0  0  0  0  0  0  0  0  0
    4.2143   -1.7576    3.6766 H   0  0  0  0  0  0  0  0  0  0  0  0
    0.5843   -1.2246    4.4370 H   0  0  0  0  0  0  0  0  0  0  0  0
    2.1406   -2.0136    4.5748 H   0  0  0  0  0  0  0  0  0  0  0  0
  1  2  1  0  0  0  0
  1  3  2  0  0  0  0
  1 11  1  0  0  0  0
  2  4  2  0  0  0  0
  2 12  1  0  0  0  0
  3  5  1  0  0  0  0
  3 13  1  0  0  0  0
  4  6  1  0  0  0  0
  4 14  1  0  0  0  0
  5  6  2  0  0  0  0
  5  9  1  0  0  0  0
  6 10  1  0  0  0  0
  7  9  1  0  0  0  0
  7 15  1  0  0  0  0
  7 16  1  0  0  0  0
  7 17  1  0  0  0  0
  8 10  1  0  0  0  0
  8 18  1  0  0  0  0
  8 19  1  0  0  0  0
  8 20  1  0  0  0  0
  9 21  1  0  0  0  0
  9 22  1  0  0  0  0
 10 23  1  0  0  0  0
 10 24  1  0  0  0  0
M  END
$$$$
