31
1 1 C12H18N
C                     4.084968211005    -0.891633489796    -2.933233390451
C                     2.920432302677    -1.525904924081    -3.366331117669
C                     4.240577897529    -0.604098024905    -1.573391027380
C                     1.918255847324    -1.871451493609    -2.452311569158
C                     3.238954517029    -0.950432052457    -0.666199886343
C                     2.058338008667    -1.590707256202    -1.085832710019
C                     1.599349804865    -2.900023758031     1.010163464580
C                     0.503872480341    -0.656441504030     0.653641426321
C                     0.699649304832    -3.153623903335     2.215208200599
C                    -0.400823680107    -0.901249311769     1.856693587887
C                     0.975883386040    -1.956174976998    -0.055619472358
C                    -0.230902231875    -2.650578717478    -0.713856368829
N                     0.299313330318    -1.826211186642     2.839786018569
H                     4.862156995249    -0.623902074548    -3.643193247557
H                     2.784723521100    -1.755876047486    -4.419396084698
H                     5.141279955394    -0.110433425875    -1.219351846259
H                     1.030016844123    -2.362967257448    -2.831605520987
H                     3.397771001575    -0.709320552826     0.382911851750
H                     2.553363789068    -2.494848812474     1.363597949611
H                     1.832908167664    -3.867697822207     0.556316328508
H                    -0.042183948735    -0.025680557276    -0.054087176244
H                     1.367917649640    -0.066953167602     0.978114783460
H                    -0.231685562316    -3.659299470353     1.956399750310
H                     1.206264468322    -3.731837055643     2.991158768380
H                    -0.629025758805     0.022147256915     2.393669309569
H                    -1.338936375972    -1.392571851840     1.594703284991
H                    -1.006920380877    -2.916865849365     0.009121565166
H                     0.069494551740    -3.576640423682    -1.210554084627
H                    -0.701346280895    -2.002990528103    -1.458075470768
H                     1.144212079661    -1.357975505249     3.188217609332
H                    -0.299913618362    -1.988967824155     3.656638317537
