42
1 1 C12F3H23NO2S
C                    -0.807347498374    -1.442327315732    -0.434136883090
C                    -0.623602951838    -2.751658909695     0.343505961660
C                    -0.018866315875    -2.310546063357     1.676902302037
H                     1.036087295203    -2.056126979278     1.541217254058
N                    -0.719180452496    -0.949080020559     1.935833103389
C                    -1.346556093880    -0.469594746056     0.617915138215
C                    -0.190936551672    -3.245017866552     2.868529506458
C                     0.411249614180    -2.673144453023     4.157963502831
C                     0.212447409490    -3.580363735703     5.374523478919
S                     0.594127352570    -2.565229238615     6.849477215575
O                    -0.384945717901    -1.458604161136     6.827273929377
O                     2.035909023096    -2.266968759276     6.812991791009
C                     0.255111486001    -3.658775516121     8.261058070633
C                     0.767199982298    -3.054730959282     9.573869078842
C                    -0.026784606149    -1.834279445737    10.057536774222
C                     0.487735104883    -1.345908497393    11.415614542966
C                    -0.275297225874    -0.144073141781    11.930823322103
F                    -1.598298970052    -0.413640362733    12.086280245751
F                    -0.184289964196     0.915058873720    11.085792421335
F                     0.195148754643     0.260780667294    13.133819004586
H                    -1.501450867285    -1.535380884517    -1.271200682278
H                     0.149533933089    -1.089358014512    -0.829814277781
H                    -1.585658879153    -3.249855996203     0.507812061797
H                     0.036512703651    -3.457215377396    -0.164617690262
H                    -1.438878683725    -1.054972126989     2.657884485130
H                    -0.052759666418    -0.265156216686     2.305456632741
H                    -1.080105477986     0.575200160148     0.460755639809
H                    -2.427717338611    -0.548620710712     0.735581839756
H                    -1.258091274694    -3.467531390779     3.003152760364
H                     0.289738223240    -4.193178748630     2.604841460192
H                    -0.056908854966    -1.710101573167     4.395649982342
H                     1.480900667192    -2.482902197726     4.024695090754
H                    -0.825492212329    -3.910922154505     5.475266617004
H                     0.881511753242    -4.444194948072     5.364697557718
H                     0.772445954117    -4.596394484357     8.035730053910
H                    -0.825548320989    -3.826638364460     8.272409943114
H                     1.827528160549    -2.806405578330     9.459871824373
H                     0.711070139687    -3.853407402216    10.322852088037
H                    -1.087042303287    -2.096838635302    10.140890911035
H                     0.039428919882    -1.024219374398     9.327558159111
H                     0.403935628405    -2.128043463984    12.176528122256
H                     1.540762357453    -1.054899799047    11.354723603031
