42
1 1 C12F3H23NO2S
C                     2.847043096627    -5.246608747391     2.264533459293
C                     1.412900808234    -4.932131066210     1.817462241608
C                     0.845016941073    -4.126516818997     2.987463714422
H                     0.653912788394    -4.793129130183     3.831198183941
N                     2.045466286319    -3.291451415211     3.449702706746
C                     3.320937068846    -3.942409336271     2.918393647473
C                    -0.384757362564    -3.274775734235     2.690722344101
C                    -0.918457519647    -2.360313349068     3.810373515504
C                    -1.297305613217    -3.042124233006     5.141252205341
S                     0.024769748044    -2.823686548074     6.382680610439
O                     0.296570218536    -1.384330006744     6.506348493765
O                     1.168039484804    -3.702435980402     5.977771227174
C                    -0.645152799433    -3.484811693760     7.928205414618
C                     0.401871657363    -3.398271380962     9.042165443874
C                    -0.152016356302    -3.996547477572    10.343025185866
C                     0.878417754635    -3.916044579321    11.474824186360
C                     0.383054787807    -4.553859892219    12.756906662419
F                     0.102128809778    -5.871880417228    12.583833895104
F                    -0.751252962466    -3.961669232988    13.208744258617
F                     1.307103313398    -4.463443552148    13.738767464894
H                     3.500080176114    -5.533439475240     1.438512101504
H                     2.850279936038    -6.061576085384     2.993897826665
H                     1.409457785506    -4.331025781854     0.900818196387
H                     0.819961691340    -5.829905054274     1.631781890750
H                     1.969540215304    -2.325726564708     3.120533282870
H                     2.005308266076    -3.271320598641     4.492215562688
H                     4.014685719690    -4.077336290270     3.747714081205
H                     3.760902727785    -3.256114977248     2.194079038303
H                    -0.185484375370    -2.651951694210     1.809546364382
H                    -1.173182293526    -3.973432159743     2.389590612717
H                    -1.819786287374    -1.878398129856     3.422746080961
H                    -0.230464057269    -1.531831560671     4.014859797825
H                    -2.178240161125    -2.567963581931     5.581336399974
H                    -1.486663846233    -4.114843556029     5.046090145835
H                    -0.939797712523    -4.517714093587     7.719702899522
H                    -1.532877463552    -2.886190843490     8.152604434289
H                     0.681344641773    -2.351450789687     9.195993523024
H                     1.302237132063    -3.939926727846     8.736098801619
H                    -0.430482094226    -5.043060278214    10.179027638378
H                    -1.061761004925    -3.464856733361    10.641103480076
H                     1.805074499446    -4.428736411723    11.200136604383
H                     1.129201856953    -2.876670130537    11.705777679631
