42
1 1 C12F3H23NO2S
C                     1.114019387063    -1.287654002990    -0.412092244219
C                     1.372203683416    -1.593705717155     1.068630196088
C                     0.044280617637    -2.164328706102     1.571772110247
H                    -0.671013155249    -1.353294842860     1.733207185886
N                    -0.494330372754    -2.929855329517     0.332437447700
C                     0.321551790926    -2.502792751968    -0.897066986143
C                     0.085878275065    -3.080637099511     2.790094971420
C                     0.540880599697    -2.315283802800     4.043834128688
C                     0.429514578364    -3.173772955352     5.302078256220
S                     0.561277169062    -2.182984647577     6.838067795072
O                     0.115533519413    -3.049529697645     7.936787981045
O                    -0.102868472516    -0.893673409733     6.569041255644
C                     2.341125092361    -1.872582096595     7.041639685632
C                     2.584046293384    -1.067585086972     8.320827684060
C                     4.076792052676    -0.759355295282     8.493173335428
C                     4.342376728274     0.028953137316     9.780380961565
C                     5.802285596990     0.393006790770     9.946749932055
F                     6.246983274965     1.170186981177     8.922992868035
F                     6.598361837739    -0.707254851375     9.980514972999
F                     6.014439916391     1.079270775021    11.092019725833
H                     2.031800634110    -1.164481154361    -0.989751549075
H                     0.523401722967    -0.373252160987    -0.522144800089
H                     2.171690857587    -2.334911123130     1.182153561781
H                     1.653387593000    -0.705814425716     1.637120807255
H                    -0.416430740624    -3.940434235250     0.483676553807
H                    -1.491564492880    -2.737562459611     0.201535833616
H                    -0.360412924828    -2.312746218154    -1.725536952721
H                     0.971079076104    -3.340980110793    -1.151866199380
H                    -0.913680351211    -3.495591599761     2.970412291167
H                     0.762187922682    -3.923577898466     2.592872826380
H                    -0.081536238466    -1.425169035723     4.180449195031
H                     1.571681388106    -1.969761522505     3.912896842768
H                    -0.562248955384    -3.626903865945     5.400351851265
H                     1.175215487621    -3.971756128514     5.358543290259
H                     2.674769498027    -1.326297396345     6.153993292114
H                     2.828802850310    -2.851091402832     7.081500064861
H                     2.213009506331    -1.637170375284     9.178359311616
H                     2.011811113147    -0.135509085973     8.275201400526
H                     4.436558481705    -0.181934104296     7.634377424139
H                     4.650239450900    -1.692386392354     8.515383950731
H                     3.774701304017     0.964110918220     9.792984872618
H                     4.049165493834    -0.548242767057    10.662119842958
