
  -OEChem-12122420523D

 42 42  0     1  0  0  0  0  0999 V2000
    1.4973   -0.9521    0.0777 C   0  0  0  0  0  0  0  0  0  0  0  0
    1.4750   -1.3849    1.5487 C   0  0  0  0  0  0  0  0  0  0  0  0
    0.1291   -2.0960    1.7111 C   0  0  1  0  0  0  0  0  0  0  0  0
   -0.6741   -1.3579    1.7858 H   0  0  0  0  0  0  0  0  0  0  0  0
   -0.0757   -2.7692    0.3265 N   0  3  0  0  0  0  0  0  0  0  0  0
    0.9336   -2.1659   -0.6626 C   0  0  0  0  0  0  0  0  0  0  0  0
    0.0101   -3.1237    2.8327 C   0  0  0  0  0  0  0  0  0  0  0  0
    0.1818   -2.4471    4.2004 C   0  0  0  0  0  0  0  0  0  0  0  0
   -0.0034   -3.4227    5.3640 C   0  0  0  0  0  0  0  0  0  0  0  0
    0.2511   -2.4639    6.9049 S   0  0  0  0  0  0  0  0  0  0  0  0
   -0.8114   -1.4446    6.9353 O   0  0  0  0  0  0  0  0  0  0  0  0
    1.6700   -2.0656    6.9170 O   0  0  0  0  0  0  0  0  0  0  0  0
   -0.0481   -3.6387    8.2555 C   0  0  0  0  0  0  0  0  0  0  0  0
    1.0288   -4.7139    8.3858 C   0  0  0  0  0  0  0  0  0  0  0  0
    0.7790   -5.5908    9.6210 C   0  0  0  0  0  0  0  0  0  0  0  0
    1.8612   -6.6647    9.7756 C   0  0  0  0  0  0  0  0  0  0  0  0
    1.6141   -7.5788   10.9578 C   0  0  0  0  0  0  0  0  0  0  0  0
    0.4314   -8.2387   10.8437 F   0  0  0  0  0  0  0  0  0  0  0  0
    1.5767   -6.8947   12.1282 F   0  0  0  0  0  0  0  0  0  0  0  0
    2.5861   -8.5140   11.0668 F   0  0  0  0  0  0  0  0  0  0  0  0
    2.4989   -0.7074   -0.2801 H   0  0  0  0  0  0  0  0  0  0  0  0
    0.8619   -0.0753   -0.0793 H   0  0  0  0  0  0  0  0  0  0  0  0
    2.2981   -2.0747    1.7680 H   0  0  0  0  0  0  0  0  0  0  0  0
    1.5546   -0.5412    2.2358 H   0  0  0  0  0  0  0  0  0  0  0  0
    0.0591   -3.7818    0.4061 H   0  0  0  0  0  0  0  0  0  0  0  0
   -1.0377   -2.6338    0.0033 H   0  0  0  0  0  0  0  0  0  0  0  0
    0.4216   -1.9443   -1.5988 H   0  0  0  0  0  0  0  0  0  0  0  0
    1.6943   -2.9269   -0.8407 H   0  0  0  0  0  0  0  0  0  0  0  0
   -0.9701   -3.6148    2.7839 H   0  0  0  0  0  0  0  0  0  0  0  0
    0.7772   -3.8989    2.6997 H   0  0  0  0  0  0  0  0  0  0  0  0
   -0.5442   -1.6343    4.3045 H   0  0  0  0  0  0  0  0  0  0  0  0
    1.1790   -2.0040    4.2733 H   0  0  0  0  0  0  0  0  0  0  0  0
   -1.0142   -3.8390    5.3977 H   0  0  0  0  0  0  0  0  0  0  0  0
    0.7354   -4.2281    5.3457 H   0  0  0  0  0  0  0  0  0  0  0  0
   -1.0516   -4.0445    8.0956 H   0  0  0  0  0  0  0  0  0  0  0  0
   -0.0842   -2.9900    9.1371 H   0  0  0  0  0  0  0  0  0  0  0  0
    2.0081   -4.2307    8.4543 H   0  0  0  0  0  0  0  0  0  0  0  0
    1.0433   -5.3469    7.4900 H   0  0  0  0  0  0  0  0  0  0  0  0
   -0.2031   -6.0699    9.5454 H   0  0  0  0  0  0  0  0  0  0  0  0
    0.7591   -4.9633   10.5181 H   0  0  0  0  0  0  0  0  0  0  0  0
    1.9143   -7.3018    8.8873 H   0  0  0  0  0  0  0  0  0  0  0  0
    2.8465   -6.2111    9.9178 H   0  0  0  0  0  0  0  0  0  0  0  0
  1  2  1  0  0  0  0
  1  6  1  0  0  0  0
  1 21  1  0  0  0  0
  1 22  1  0  0  0  0
  2  3  1  0  0  0  0
  2 23  1  0  0  0  0
  2 24  1  0  0  0  0
  3  4  1  0  0  0  0
  3  5  1  0  0  0  0
  3  7  1  0  0  0  0
  5  6  1  0  0  0  0
  5 25  1  0  0  0  0
  5 26  1  0  0  0  0
  6 27  1  0  0  0  0
  6 28  1  0  0  0  0
  7  8  1  0  0  0  0
  7 29  1  0  0  0  0
  7 30  1  0  0  0  0
  8  9  1  0  0  0  0
  8 31  1  0  0  0  0
  8 32  1  0  0  0  0
  9 10  1  0  0  0  0
  9 33  1  0  0  0  0
  9 34  1  0  0  0  0
 10 11  2  0  0  0  0
 10 12  2  0  0  0  0
 10 13  1  0  0  0  0
 13 14  1  0  0  0  0
 13 35  1  0  0  0  0
 13 36  1  0  0  0  0
 14 15  1  0  0  0  0
 14 37  1  0  0  0  0
 14 38  1  0  0  0  0
 15 16  1  0  0  0  0
 15 39  1  0  0  0  0
 15 40  1  0  0  0  0
 16 17  1  0  0  0  0
 16 41  1  0  0  0  0
 16 42  1  0  0  0  0
 17 18  1  0  0  0  0
 17 19  1  0  0  0  0
 17 20  1  0  0  0  0
M  CHG  1   5   1
M  END
$$$$
