
  -OEChem-12122420523D

 42 42  0     1  0  0  0  0  0999 V2000
   -0.1949   -1.9370   -0.8188 C   0  0  0  0  0  0  0  0  0  0  0  0
   -0.1031   -3.0491    0.2343 C   0  0  0  0  0  0  0  0  0  0  0  0
    0.0412   -2.2931    1.5543 C   0  0  1  0  0  0  0  0  0  0  0  0
    1.0417   -1.8560    1.6238 H   0  0  0  0  0  0  0  0  0  0  0  0
   -0.8987   -1.0814    1.3446 N   0  3  0  0  0  0  0  0  0  0  0  0
   -1.0970   -0.8806   -0.1687 C   0  0  0  0  0  0  0  0  0  0  0  0
   -0.2936   -3.0440    2.8368 C   0  0  0  0  0  0  0  0  0  0  0  0
   -0.1631   -2.1829    4.1039 C   0  0  0  0  0  0  0  0  0  0  0  0
   -0.1802   -3.0236    5.3792 C   0  0  0  0  0  0  0  0  0  0  0  0
    0.2387   -2.0291    6.8645 S   0  0  0  0  0  0  0  0  0  0  0  0
    1.1091   -0.9293    6.4054 O   0  0  0  0  0  0  0  0  0  0  0  0
    0.6874   -2.9701    7.8980 O   0  0  0  0  0  0  0  0  0  0  0  0
   -1.3457   -1.3110    7.3946 C   0  0  0  0  0  0  0  0  0  0  0  0
   -1.1357   -0.4213    8.6224 C   0  0  0  0  0  0  0  0  0  0  0  0
   -2.4626    0.2093    9.0647 C   0  0  0  0  0  0  0  0  0  0  0  0
   -2.2837    1.0932   10.3040 C   0  0  0  0  0  0  0  0  0  0  0  0
   -3.5763    1.7552   10.7326 C   0  0  0  0  0  0  0  0  0  0  0  0
   -4.5396    0.8430   11.0236 F   0  0  0  0  0  0  0  0  0  0  0  0
   -4.0770    2.5596    9.7559 F   0  0  0  0  0  0  0  0  0  0  0  0
   -3.4006    2.5213   11.8321 F   0  0  0  0  0  0  0  0  0  0  0  0
   -0.6166   -2.2793   -1.7653 H   0  0  0  0  0  0  0  0  0  0  0  0
    0.7948   -1.5202   -1.0246 H   0  0  0  0  0  0  0  0  0  0  0  0
   -1.0108   -3.6634    0.2435 H   0  0  0  0  0  0  0  0  0  0  0  0
    0.7482   -3.7133    0.0739 H   0  0  0  0  0  0  0  0  0  0  0  0
   -1.7993   -1.2641    1.7972 H   0  0  0  0  0  0  0  0  0  0  0  0
   -0.5182   -0.2435    1.7939 H   0  0  0  0  0  0  0  0  0  0  0  0
   -0.8459    0.1495   -0.4196 H   0  0  0  0  0  0  0  0  0  0  0  0
   -2.1540   -1.0498   -0.3750 H   0  0  0  0  0  0  0  0  0  0  0  0
   -1.2947   -3.4883    2.7576 H   0  0  0  0  0  0  0  0  0  0  0  0
    0.4075   -3.8841    2.8888 H   0  0  0  0  0  0  0  0  0  0  0  0
   -0.9705   -1.4392    4.1491 H   0  0  0  0  0  0  0  0  0  0  0  0
    0.7772   -1.6224    4.0845 H   0  0  0  0  0  0  0  0  0  0  0  0
   -1.1377   -3.5176    5.5680 H   0  0  0  0  0  0  0  0  0  0  0  0
    0.6010   -3.7899    5.3660 H   0  0  0  0  0  0  0  0  0  0  0  0
   -2.0114   -2.1509    7.6138 H   0  0  0  0  0  0  0  0  0  0  0  0
   -1.7381   -0.7387    6.5476 H   0  0  0  0  0  0  0  0  0  0  0  0
   -0.4081    0.3607    8.3832 H   0  0  0  0  0  0  0  0  0  0  0  0
   -0.7140   -1.0232    9.4332 H   0  0  0  0  0  0  0  0  0  0  0  0
   -3.1929   -0.5769    9.2842 H   0  0  0  0  0  0  0  0  0  0  0  0
   -2.8760    0.8118    8.2482 H   0  0  0  0  0  0  0  0  0  0  0  0
   -1.9209    0.5088   11.1545 H   0  0  0  0  0  0  0  0  0  0  0  0
   -1.5594    1.8916   10.1175 H   0  0  0  0  0  0  0  0  0  0  0  0
  1  2  1  0  0  0  0
  1  6  1  0  0  0  0
  1 21  1  0  0  0  0
  1 22  1  0  0  0  0
  2  3  1  0  0  0  0
  2 23  1  0  0  0  0
  2 24  1  0  0  0  0
  3  4  1  0  0  0  0
  3  5  1  0  0  0  0
  3  7  1  0  0  0  0
  5  6  1  0  0  0  0
  5 25  1  0  0  0  0
  5 26  1  0  0  0  0
  6 27  1  0  0  0  0
  6 28  1  0  0  0  0
  7  8  1  0  0  0  0
  7 29  1  0  0  0  0
  7 30  1  0  0  0  0
  8  9  1  0  0  0  0
  8 31  1  0  0  0  0
  8 32  1  0  0  0  0
  9 10  1  0  0  0  0
  9 33  1  0  0  0  0
  9 34  1  0  0  0  0
 10 11  2  0  0  0  0
 10 12  2  0  0  0  0
 10 13  1  0  0  0  0
 13 14  1  0  0  0  0
 13 35  1  0  0  0  0
 13 36  1  0  0  0  0
 14 15  1  0  0  0  0
 14 37  1  0  0  0  0
 14 38  1  0  0  0  0
 15 16  1  0  0  0  0
 15 39  1  0  0  0  0
 15 40  1  0  0  0  0
 16 17  1  0  0  0  0
 16 41  1  0  0  0  0
 16 42  1  0  0  0  0
 17 18  1  0  0  0  0
 17 19  1  0  0  0  0
 17 20  1  0  0  0  0
M  CHG  1   5   1
M  END
$$$$
