25   
torsion grid (-165,)
C        0.7946037013   -1.7135370483    0.4470826999
C        2.8849008419   -0.5717012730    0.7011025071
C        0.7085326183   -1.8073688882    1.8184369913
C        2.7539935382   -0.6902516479    2.0691583797
C        1.8950522990   -1.0756871522   -0.1729718254
C        0.7980281237   -0.4355059436   -2.3983547349
C        1.1886834548   -1.8671941548   -2.5308997807
C        2.0385730180   -0.9543065153   -1.6363705668
C        3.4071827629   -0.5688653411   -2.1736558182
C        1.5855336444   -1.4632067741    4.0929965209
N        1.6768546516   -1.2989389492    2.6240464826
H       -0.0156642642   -2.1389688198   -0.1324241303
H        3.7695097474   -0.0776460157    0.3199646297
H       -0.1242677648   -2.2937460987    2.3137491825
H        3.5001014998   -0.3077963104    2.7567616329
H        1.0052918716    0.2473312156   -3.2163672320
H       -0.0791983801   -0.1837440198   -1.8104466164
H        0.5700090951   -2.6314495724   -2.0732729601
H        1.6733277500   -2.1880214031   -3.4470284881
H        3.3948262683   -0.5738449782   -3.2657528469
H        4.1757447654   -1.2787668696   -1.8508498531
H        3.7059129300    0.4384735465   -1.8649130831
H        2.0545206841   -2.4051184842    4.3852151338
H        2.0921448857   -0.6300665168    4.5788308931
H        0.5371188765   -1.4630599052    4.3891902609
25   
torsion grid (-150,)
C        0.8891186442   -1.8920626557    0.4501665727
C        2.7850653374   -0.4509041132    0.6952306539
C        0.8009756502   -1.9664784488    1.8246775680
C        2.6562823492   -0.5535675353    2.0641093304
C        1.8875740297   -1.1123508945   -0.1738216609
C        0.8737999541   -0.2722460582   -2.3684419554
C        1.0753949827   -1.7415250943   -2.5613091829
C        2.0329972369   -0.9907552748   -1.6419619746
C        3.4416156716   -0.7550814022   -2.1707267866
C        1.5889322282   -1.4417527387    4.0965117973
N        1.6717716779   -1.3009936488    2.6242733719
H        0.1680975765   -2.4560104788   -0.1279607842
H        3.5922418640    0.1579613518    0.3074414917
H        0.0468816265   -2.5641945820    2.3243618002
H        3.3281912148   -0.0486928016    2.7491528352
H        1.1670140332    0.4145010881   -3.1566441736
H        0.0328854941    0.0580019586   -1.7665849107
H        0.3409165214   -2.4229643289   -2.1470583339
H        1.5042278345   -2.0839261273   -3.4971743407
H        3.4361082537   -0.7702597348   -3.2628348786
H        4.1262006326   -1.5389177691   -1.8314621645
H        3.8458472214    0.2170947739   -1.8714449526
H        2.1952790579   -2.2917729340    4.4163617886
H        1.9541440575   -0.5283358673    4.5646123740
H        0.5497534683   -1.5977546035    4.3837538937
25   
torsion grid (-135,)
C        1.0006286999   -2.0378860606    0.4505489578
C        2.6663692159   -0.3329153036    0.6851347318
C        0.9116204100   -2.1030945324    1.8278643739
C        2.5404380122   -0.4294988175    2.0543661496
C        1.8844406636   -1.1363974476   -0.1741300363
C        0.9752858234   -0.1297826352   -2.3453488634
C        0.9727172496   -1.6175936614   -2.5620070291
C        2.0227350858   -1.0148943425   -1.6483332477
C        3.4532386833   -0.9451450360   -2.1723013042
C        1.5943234651   -1.4267905132    4.0940821079
N        1.6689197366   -1.3051942631    2.6191645594
H        0.3825345131   -2.7109103477   -0.1307921588
H        3.3720123635    0.3867036483    0.2870165532
H        0.2480223167   -2.7956877178    2.3333960871
H        3.1202692104    0.1816636524    2.7369594072
H        1.3475485385    0.5222475856   -3.1297123334
H        0.1813835508    0.2951641836   -1.7388224948
H        0.1443401120   -2.1819320225   -2.1473669460
H        1.3295124499   -2.0005452855   -3.5124796142
H        3.4456290864   -0.8911964529   -3.2634930211
H        4.0200228929   -1.8363179010   -1.8854032126
H        3.9892577240   -0.0616838000   -1.8126296208
H        2.3541343329   -2.1306871934    4.4398694841
H        1.7620886258   -0.4482429827    4.5429073076
H        0.6038438564   -1.7823706726    4.3747375411
25   
torsion grid (-120,)
C        1.1156922772   -2.1393735408    0.4472407106
C        2.5323077880   -0.2193658449    0.6757263776
C        1.0319859042   -2.2101246197    1.8260442776
C        2.4177783745   -0.3251604545    2.0458767844
C        1.8723875763   -1.1308286549   -0.1744936409
C        1.0766211098   -0.0179704717   -2.3468204582
C        0.8944811700   -1.5035867623   -2.5499987298
C        2.0080207808   -1.0125554173   -1.6530017307
C        3.4436396102   -1.1134564129   -2.1607846110
C        1.6073976686   -1.4304956434    4.0873723248
N        1.6723723130   -1.3108393630    2.6112431982
H        0.5948034520   -2.8858059652   -0.1412657359
H        3.1266539676    0.5904779817    0.2668161695
H        0.4646329614   -2.9807348198    2.3359205550
H        2.9034042880    0.3636599947    2.7280275063
H        1.5088721195    0.5758403816   -3.1464088094
H        0.3343758794    0.4999594814   -1.7467362120
H        0.0092961169   -1.9549819259   -2.1123169303
H        1.1845979112   -1.9335349491   -3.5032863811
H        3.4628580281   -0.9897941715   -3.2464539900
H        3.8747283901   -2.0915823551   -1.9252694361
H        4.0883109357   -0.3402697770   -1.7310167219
H        2.4536363706   -2.0231160713    4.4407979571
H        1.6398960409   -0.4350509010    4.5290130675
H        0.6725655848   -1.9142976373    4.3670018375
25   
torsion grid (-105,)
C        1.2335441761   -2.2081248323    0.4408020869
C        2.3896212704   -0.1192481436    0.6728418320
C        1.1582444147   -2.2900944835    1.8196349990
C        2.2897010958   -0.2413666249    2.0440788771
C        1.8547648315   -1.1084896979   -0.1744344679
C        1.1814503309    0.0765263753   -2.3618967874
C        0.8322855477   -1.3873638260   -2.5379702515
C        1.9944423251   -0.9960952394   -1.6552647879
C        3.4148045137   -1.2709103890   -2.1441041334
C        1.6249186838   -1.4451985832    4.0822843909
N        1.6775282016   -1.3159348825    2.6059780884
H        0.8066324520   -3.0071049680   -0.1556352506
H        2.8744625455    0.7589575133    0.2591699851
H        0.6904565476   -3.1247356837    2.3297361046
H        2.6829781308    0.5020076291    2.7284456215
H        1.6626109611    0.6018564067   -3.1811377851
H        0.4982509039    0.6834256363   -1.7745791222
H       -0.0904952062   -1.7308730206   -2.0788859375
H        1.0638135876   -1.8629845935   -3.4857210618
H        3.4615878288   -1.1580484922   -3.2303537873
H        3.7267971332   -2.2905963659   -1.8962419689
H        4.1354989038   -0.5736497426   -1.7041807494
H        2.5343294261   -1.9355829870    4.4353854825
H        1.5403774293   -0.4537519969    4.5257856088
H        0.7527105837   -2.0356069274    4.3594903926
25   
torsion grid (-90,)
C        1.3770004295   -2.2630027076    0.4368243379
C        2.2438934909   -0.0382755410    0.6749722224
C        1.3002125751   -2.3542016049    1.8140051569
C        2.1498919871   -0.1725806984    2.0469491848
C        1.8539721337   -1.0899843036   -0.1730480267
C        1.2982426147    0.1590776744   -2.3654367600
C        0.7802795209   -1.2588247797   -2.5181113488
C        1.9924705741   -0.9832650039   -1.6553893182
C        3.3662274249   -1.4320909034   -2.1497947680
C        1.6300581410   -1.4526376852    4.0790047022
N        1.6804624838   -1.3181781561    2.6029767986
H        1.0565467703   -3.1068470069   -0.1652947399
H        2.6145073066    0.8941453301    0.2619086160
H        0.9370335679   -3.2405407472    2.3219781623
H        2.4379745058    0.6152066683    2.7340971936
H        1.8161999144    0.6151948028   -3.2033421977
H        0.6915715747    0.8468032810   -1.7827332600
H       -0.1645232786   -1.4941172552   -2.0358605229
H        0.9440205159   -1.7711492907   -3.4610022585
H        3.4205197074   -1.3297012419   -3.2368571471
H        3.5554753218   -2.4811349041   -1.8993086588
H        4.1654327407   -0.8239120075   -1.7132997713
H        2.5946468318   -1.8124252786    4.4426737937
H        1.4039928382   -0.4822764481    4.5195569229
H        0.8452069260   -2.1582701122    4.3477590650
25   
torsion grid (-75,)
C        2.3431448181   -0.0936191615    0.6755503711
C        1.2682813399   -2.2248323581    0.4380308489
C        2.2536509218   -0.2263586206    2.0466891176
C        1.1975735828   -2.3159238231    1.8163784090
C        1.8489542451   -1.1014350896   -0.1740522558
C        2.3044496222   -2.1325391537   -2.5048982708
C        3.2798049326   -0.9880231877   -2.3155424414
C        1.9118406668   -0.9455656235   -1.6564991141
C        0.8719198437    0.0330796935   -2.1981609736
C        1.5622422073   -1.4250737397    4.0787916991
N        1.6880999999   -1.3281309950    2.6044552268
H        2.8126059442    0.7940176933    0.2642870869
H        0.8672739804   -3.0348217189   -0.1616261597
H        2.6271456760    0.5247833544    2.7336355459
H        0.7533958742   -3.1648319823    2.3241163758
H        1.8160246005   -2.2410932155   -3.4681136001
H        2.5502606693   -3.0727000009   -2.0190992654
H        4.1513704814   -1.1757383248   -1.6948087207
H        3.4525527542   -0.3063906876   -3.1426551148
H        0.9747207225    0.1213632455   -3.2828692699
H        0.9963065810    1.0321970650   -1.7676220391
H       -0.1446048586   -0.3110625702   -1.9817015360
H        0.6261325077   -0.9594254582    4.3935173869
H        1.5724748007   -2.4742425080    4.3710888781
H        2.4056947051   -0.9166207521    4.5443351938
25   
torsion grid (-60,)
C        2.1645885482   -0.0274500717    0.6707523449
C        1.4008563164   -2.2906733550    0.4485327163
C        2.0984801250   -0.1630605282    2.0415091884
C        1.3464924943   -2.3793746607    1.8277113046
C        1.8173500136   -1.1013855419   -0.1748616101
C        2.1633709167   -2.1507663468   -2.5233246666
C        3.2631457748   -1.1401758918   -2.2962167913
C        1.8894567631   -0.9445028021   -1.6542842656
C        0.9945177858    0.1590889804   -2.2113956624
C        1.5856170082   -1.4321169746    4.0847742567
N        1.6950894748   -1.3295945185    2.6100005484
H        2.5048090465    0.9164641545    0.2588354558
H        1.1041762942   -3.1524671275   -0.1381725092
H        2.3663073703    0.6377074621    2.7216535223
H        1.0211854966   -3.2776958812    2.3404664912
H        1.6795162024   -2.1785309101   -3.4943462195
H        2.2910833808   -3.1265986171   -2.0647594865
H        4.0932792558   -1.4369449477   -1.6621031880
H        3.5256455501   -0.4567974430   -3.0979940286
H        1.1220230392    0.2289238345   -3.2945309535
H        1.2372840234    1.1389600400   -1.7882489036
H       -0.0603774893   -0.0516777384   -2.0091906445
H        0.5977770396   -1.0898656760    4.3998786513
H        1.7326550907   -2.4690489712    4.3838573636
H        2.3569870972   -0.8154043874    4.5446844645
25   
torsion grid (-45,)
C        1.9743915167    0.0204594771    0.6727328371
C        1.5540617505   -2.3277955210    0.4586675358
C        1.9301749850   -0.1192783943    2.0433148816
C        1.5138491102   -2.4191379397    1.8366771193
C        1.7876104769   -1.0925206532   -0.1768760272
C        2.0156144355   -2.1533495264   -2.5411919988
C        3.2257293010   -1.2995314908   -2.2825854774
C        1.8711835449   -0.9334092162   -1.6515099197
C        1.1358676529    0.2715721025   -2.2285228803
C        1.6052771102   -1.4406830028    4.0929867961
N        1.7031889153   -1.3287152054    2.6187207410
H        2.1675553255    1.0062129226    0.2662583333
H        1.3825144208   -3.2302282473   -0.1150185413
H        2.0774654110    0.7160881559    2.7186509841
H        1.3220217269   -3.3547421644    2.3499971133
H        1.5408685140   -2.0925729782   -3.5149768153
H        2.0046712931   -3.1495649345   -2.1122889044
H        3.9989450064   -1.6994775122   -1.6338068680
H        3.5843167406   -0.6334317182   -3.0614877233
H        1.2339934888    0.2795983457   -3.3166193908
H        1.5376050667    1.2221322664   -1.8648090857
H        0.0687040322    0.2311222232   -1.9893269447
H        0.5781211091   -1.2414907892    4.4054448300
H        1.8975435602   -2.4451305407    4.3963866995
H        2.2800421245   -0.7191135783    4.5524100846
25   
torsion grid (-30,)
C        1.7845235623    0.0506270614    0.6745838311
C        1.7376026607   -2.3339234952    0.4629978427
C        1.7485599677   -0.0940922676    2.0451914676
C        1.7004570139   -2.4287956958    1.8383460200
C        1.7728851020   -1.0762632355   -0.1789321615
C        1.8478266529   -2.1411724482   -2.5481533958
C        3.1619376516   -1.4773831740   -2.2867716871
C        1.8752417719   -0.9109793564   -1.6461102348
C        1.3043340565    0.3735679607   -2.2313574021
C        1.6110490877   -1.4498380252    4.0949372136
N        1.7072303950   -1.3215832345    2.6224918415
H        1.8197815851    1.0556162816    0.2728608558
H        1.7278117139   -3.2576822134   -0.1016872625
H        1.7568806130    0.7559255778    2.7182896761
H        1.6587320554   -3.3831476814    2.3512213525
H        1.3812009090   -1.9950185727   -3.5165675833
H        1.6691703255   -3.1237568298   -2.1261283433
H        3.8705956351   -1.9743584919   -1.6315745937
H        3.6109966323   -0.8616042566   -3.0601102037
H        1.3626530836    0.3444569297   -3.3216334321
H        1.8553770424    1.2633139737   -1.9105268175
H        0.2513828363    0.4962215782   -1.9587768519
H        0.5605788138   -1.4497380079    4.3932343798
H        2.0850392658   -2.3802459325    4.4054803034
H        2.1294681851   -0.6131343640    4.5619225637
25   
torsion grid (-15,)
C        1.6333926092    0.0577874175    0.6745404876
C        1.9342170488   -2.3096700708    0.4674722150
C        1.5832784265   -0.0945623628    2.0446129115
C        1.8776836205   -2.4112452905    1.8396539759
C        1.8018289803   -1.0570321168   -0.1777369729
C        1.6823534603   -2.1218607423   -2.5294253187
C        3.0735044946   -1.6283287539   -2.3263087125
C        1.9036090419   -0.8898506398   -1.6398928667
C        1.4777062819    0.4483710740   -2.2212702944
C        1.5919880705   -1.4609156791    4.0923792491
N        1.7036173427   -1.3150951835    2.6229623692
H        1.5340241406    1.0586610448    0.2741006098
H        2.0832152096   -3.2243893789   -0.0934656859
H        1.4509535846    0.7469235740    2.7155084142
H        1.9675462860   -3.3616123655    2.3536607692
H        1.1950862145   -1.9210767460   -3.4777201055
H        1.3780747804   -3.0560741229   -2.0698332801
H        3.7465716815   -2.1979875139   -1.6930822804
H        3.5618505671   -1.0815548112   -3.1269377840
H        1.5388692522    0.4191679116   -3.3113451751
H        2.1230838521    1.2685590205   -1.8893768777
H        0.4420257319    0.6860727797   -1.9573447190
H        0.5492136234   -1.6383684373    4.3637347657
H        2.2078545159   -2.2988566196    4.4173319738
H        1.9497678017   -0.5500499067    4.5710097107
25   
torsion grid (0,)
C        1.5150655110    0.0423197836    0.6686070484
C        2.1094755810   -2.2713268136    0.4779829915
C        1.4452211502   -0.1165599107    2.0374052042
C        2.0269760448   -2.3795220666    1.8476265192
C        1.8540155364   -1.0403122257   -0.1738172950
C        1.5377175301   -2.0948559587   -2.4961681751
C        2.9772768987   -1.7358402245   -2.3784821537
C        1.9337274254   -0.8781198339   -1.6361307276
C        1.6382414847    0.4968467670   -2.2094973624
C        1.5696506097   -1.4710727551    4.0894858342
N        1.7003824150   -1.3122191493    2.6230443485
H        1.3045295031    1.0236691758    0.2631461637
H        2.3793675669   -3.1623204302   -0.0765772737
H        1.1860265913    0.7007209480    2.7011775892
H        2.2173082897   -3.3119162178    2.3670984243
H        1.0134907796   -1.8565924892   -3.4159956823
H        1.1668311901   -2.9792220660   -1.9880590388
H        3.6356133709   -2.3640150024   -1.7870075214
H        3.4635911121   -1.2465266005   -3.2162028064
H        1.7314009301    0.4766438634   -3.2975683614
H        2.3414495730    1.2505271296   -1.8395042187
H        0.6182703482    0.8224663721   -1.9792210977
H        0.5518708481   -1.7822334184    4.3341444411
H        2.2802168608   -2.2219603501    4.4335071779
H        1.7935994679   -0.5215664464    4.5742333505
25   
torsion grid (15,)
C        1.4028666868    0.0023314159    0.6551487545
C        2.2831851716   -2.2200300744    0.4973110054
C        1.3116969327   -0.1589573591    2.0220952703
C        2.1734615948   -2.3333473362    1.8653357631
C        1.9083400940   -1.0288404800   -0.1686583243
C        1.3967496605   -2.0479954314   -2.4617409101
C        2.8695808665   -1.8250996379   -2.4313866461
C        1.9663066460   -0.8736113892   -1.6344715464
C        1.8009963088    0.5288913957   -2.1963209503
C        1.5459742013   -1.4783430264    4.0870471617
N        1.6971967665   -1.3115629667    2.6233329886
H        1.0847961412    0.9485494296    0.2362567688
H        2.6719553315   -3.0745729090   -0.0431904581
H        0.9284687978    0.6199509344    2.6718345850
H        2.4612090064   -3.2337806642    2.3962624169
H        0.8377097552   -1.7626143237   -3.3474077853
H        0.9803193716   -2.8887165639   -1.9156767793
H        3.5018770553   -2.5248537554   -1.8954795484
H        3.3443603473   -1.3854989497   -3.3022583083
H        1.9251729805    0.5142609033   -3.2813183373
H        2.5536085604    1.2121627312   -1.7894227242
H        0.8062350233    0.9410325606   -1.9965694965
H        0.5615393345   -1.8966224344    4.3072992743
H        2.3238628684   -2.1471687980    4.4538020874
H        1.6538471158   -0.5085511905    4.5714031173
25   
torsion grid (30,)
C        1.2688251744   -0.0755868599    0.6308387445
C        2.4689839846   -2.1447142192    0.5258599225
C        1.1613911486   -0.2345468351    1.9960636545
C        2.3381529963   -2.2594520318    1.8940575812
C        1.9410851901   -1.0315279738   -0.1647015977
C        1.2468053101   -1.9596176003   -2.4423794900
C        2.7412604067   -1.9177297158   -2.4727681530
C        2.0012879806   -0.8791423303   -1.6356582573
C        1.9834536104    0.5437431792   -2.1775847464
C        1.5276090732   -1.4818569643    4.0853468493
N        1.6944596187   -1.3136250357    2.6231997595
H        0.8278966118    0.8089845381    0.1884087045
H        3.0039511931   -2.9306110682    0.0077285604
H        0.6483884282    0.4845242289    2.6249277244
H        2.7459235186   -3.0992884299    2.4453276455
H        0.6861018373   -1.5987761736   -3.2992917689
H        0.7635609931   -2.7552831673   -1.8839533585
H        3.2928215314   -2.7162306564   -1.9893308917
H        3.2272281212   -1.5340825907   -3.3635990421
H        2.1165451454    0.5313421069   -3.2615909299
H        2.7974990797    1.1377726687   -1.7503644812
H        1.0360049113    1.0561751537   -1.9827266296
H        0.5855392955   -1.9955273053    4.2881709897
H        2.3598607268   -2.0661139299    4.4759848440
H        1.5266807318   -0.5018169075    4.5612617449
25   
torsion grid (45,)
C        1.1134948914   -0.1917088475    0.5988771423
C        2.6247067433   -2.0491918889    0.5513883941
C        1.0098806574   -0.3397398834    1.9654112767
C        2.4932636399   -2.1571630325    1.9225124895
C        1.9330853171   -1.0524049605   -0.1644527642
C        1.1108060670   -1.8351807572   -2.4573188864
C        2.6041425263   -2.0072267032   -2.4893877635
C        2.0153945798   -0.8973505054   -1.6397412729
C        2.1749826607    0.5329458253   -2.1443600939
C        1.5334676076   -1.4758067314    4.0839735598
N        1.6963892427   -1.3118843813    2.6203477484
H        0.5437165618    0.5998504274    0.1265793465
H        3.2924968001   -2.7385748626    0.0496523424
H        0.3813592975    0.3004896148    2.5742174288
H        3.0234266541   -2.9076216304    2.4981841693
H        0.6072173448   -1.3892083492   -3.3096574113
H        0.5270046504   -2.5763562077   -1.9200988689
H        3.0158909021   -2.8957138822   -2.0228982666
H        3.1395963557   -1.6938871975   -3.3795819194
H        2.2649307541    0.5341030072   -3.2331907251
H        3.0779895738    0.9952556814   -1.7338399613
H        1.3169093083    1.1641044279   -1.8940945071
H        0.6766876288   -2.1224117397    4.2844505040
H        2.4380286157   -1.9199490622    4.4974768098
H        1.3764482381   -0.4983562804    4.5387786075
25   
torsion grid (60,)
C        0.9684905185   -0.3247828161    0.5685975482
C        2.7390793442   -1.9422609914    0.5640815383
C        0.8807712186   -0.4565914148    1.9385149810
C        2.6178488026   -2.0394011354    1.9384633094
C        1.9091616253   -1.0746999503   -0.1673249836
C        1.0062245023   -1.7107651846   -2.4853069428
C        2.4721977169   -2.0766319474   -2.4939357866
C        2.0053884841   -0.9160138850   -1.6453454535
C        2.3486765205    0.4998778280   -2.1004363819
C        1.5532587979   -1.4610499192    4.0795728899
N        1.7008915523   -1.3047019994    2.6128957596
H        0.2908635939    0.3592413373    0.0692647097
H        3.4978951600   -2.5361187702    0.0676084524
H        0.1629578921    0.0959458753    2.5343799222
H        3.2465856665   -2.6926051601    2.5331935350
H        0.5832443327   -1.2039176822   -3.3472651473
H        0.3250436687   -2.3864325910   -1.9765089241
H        2.7476419533   -3.0137401834   -2.0197358092
H        3.0587637573   -1.8373773854   -3.3751296787
H        2.3945033112    0.5382076479   -3.1916882007
H        3.3228695032    0.8122798882   -1.7113161081
H        1.5984651260    1.2284935474   -1.7772659647
H        0.7891166652   -2.2122564172    4.2893711369
H        2.5065480822   -1.7729862643    4.5040847649
H        1.2648288233   -0.5047003459    4.5144582123
25   
torsion grid (75,)
C        0.8458139875   -0.4618724548    0.5473120239
C        2.8225454962   -1.8213183917    0.5717690728
C        0.7745880718   -0.5800179506    1.9209277842
C        2.7127636138   -1.9113158740    1.9475899506
C        1.8825233471   -1.0871976844   -0.1708379659
C        0.9220034426   -1.5839082027   -2.5106102091
C        2.3366926373   -2.1280176263   -2.4975535970
C        1.9875925313   -0.9267134840   -1.6503128531
C        2.5153870701    0.4448807301   -2.0655770126
C        1.5740063047   -1.4489911285    4.0777872729
N        1.7015949550   -1.2960599329    2.6083566365
H        0.0852177161    0.1140215726    0.0302784779
H        3.6484387874   -2.3215496045    0.0775999240
H       -0.0119485674   -0.1195819682    2.5082606008
H        3.4191435845   -2.4665970597    2.5545447810
H        0.5812450790   -1.0348710403   -3.3829746695
H        0.1557776832   -2.1815098121   -2.0248602239
H        2.4886797265   -3.0898608546   -2.0157666228
H        2.9628483129   -1.9598794303   -3.3680615136
H        2.5538220973    0.5132887621   -3.1558784234
H        3.5264398035    0.6120616047   -1.6803082901
H        1.8704139439    1.2516172429   -1.7018846268
H        0.9440488710   -2.3129060201    4.2990733172
H        2.5636739076   -1.5901413943    4.5102186520
H        1.1280042155   -0.5465479175    4.4941348925
25   
torsion grid (90,)
C        0.7462339997   -0.6030324225    0.5335814584
C        2.8906636911   -1.6796034890    0.5794280860
C        0.6853962036   -0.7145965163    1.9099011678
C        2.7863307539   -1.7696207489    1.9544319874
C        1.8603954460   -1.0885084418   -0.1723769579
C        0.8567214532   -1.4504378163   -2.5260012197
C        2.1952334543   -2.1643185918   -2.4970391318
C        1.9753334075   -0.9280142118   -1.6516391764
C        2.6756961969    0.3698897366   -2.0476477181
C        1.5876993626   -1.4461796445    4.0764280737
N        1.6973506370   -1.2899555645    2.6061870824
H       -0.0799325739   -0.1374114823    0.0063632417
H        3.7749932681   -2.0745442010    0.0901023667
H       -0.1571284021   -0.3552615624    2.4900919660
H        3.5558790812   -2.2210836492    2.5704689909
H        0.5978749703   -0.8713003319   -3.4068266340
H        0.0173209500   -1.9563758525   -2.0570821056
H        2.2279430430   -3.1340609688   -2.0082542580
H        2.8507457288   -2.0710757764   -3.3572281585
H        2.7343821746    0.4420446221   -3.1370325721
H        3.6956683043    0.4089058020   -1.6511257122
H        2.1288430315    1.2443741711   -1.6798523406
H        1.1050556275   -2.3988852809    4.3033480142
H        2.5847046978   -1.4198423989    4.5147125043
H        0.9979121117   -0.6240932992    4.4802884240
25   
torsion grid (105,)
C        0.6755904076   -0.7328135502    0.5267813840
C        2.9405965058   -1.5209451569    0.5926947952
C        0.6226595315   -0.8522315674    1.9037638235
C        2.8420233888   -1.6261066119    1.9654737470
C        1.8473628817   -1.0698405000   -0.1714246961
C        0.8072303726   -1.3186970028   -2.5299957603
C        2.0518026505   -2.1822141626   -2.4856120392
C        1.9669348335   -0.9149082239   -1.6500936846
C        2.8196417450    0.2832090298   -2.0617794814
C        1.5956532450   -1.4619346695    4.0788022576
N        1.6933265354   -1.2924135671    2.6089505692
H       -0.1987053824   -0.3690379645   -0.0020625558
H        3.8723479305   -1.8006760849    0.1121088129
H       -0.2624927094   -0.6005077494    2.4771995946
H        3.6586123223   -1.9773574147    2.5862924045
H        0.6236274129   -0.7222858046   -3.4180409139
H       -0.0894116373   -1.7262363986   -2.0715319118
H        1.9724465346   -3.1429840318   -1.9849799163
H        2.7276221507   -2.1696717348   -3.3351839995
H        2.8860465127    0.3345785413   -3.1516538162
H        3.8386264343    0.2080959654   -1.6681160832
H        2.3809378660    1.2206901095   -1.7051685319
H        1.2680384346   -2.4784978920    4.3055717667
H        2.5715075332   -1.2766804543    4.5261157303
H        0.8792911185   -0.7435210234    4.4751158831
25   
torsion grid (120,)
C        0.6331047980   -0.8612299388    0.5214418975
C        2.9772811561   -1.3543940005    0.6112048530
C        0.5789239095   -0.9936667718    1.8970472865
C        2.8763782162   -1.4801814525    1.9807201154
C        1.8444505756   -1.0426693570   -0.1690341872
C        0.7745659822   -1.1869869636   -2.5287412102
C        1.9069881106   -2.1842566634   -2.4663047907
C        1.9666002753   -0.8945636143   -1.6459663562
C        2.9491721581    0.1849443925   -2.0909973361
C        1.5991214322   -1.4853598210    4.0813397540
N        1.6876477970   -1.2985867283    2.6135386489
H       -0.2749022956   -0.5980667003   -0.0086862400
H        3.9445932139   -1.5127970389    0.1470322847
H       -0.3373478686   -0.8532276780    2.4595365603
H        3.7241139427   -1.7300422274    2.6088590888
H        0.6668954171   -0.5839083145   -3.4245747719
H       -0.1682435342   -1.4838028068   -2.0795767816
H        1.7230195161   -3.1200922360   -1.9470271550
H        2.5922319483   -2.2573624452   -3.3052701388
H        2.9985926033    0.2147703010   -3.1823307758
H        3.9623728056   -0.0026165728   -1.7219385546
H        2.6322085211    1.1724538332   -1.7411080768
H        1.4375311866   -2.5421036917    4.3036672447
H        2.5258097548   -1.1450855278    4.5422754613
H        0.7702069969   -0.8941558956    4.4681205582
25   
torsion grid (135,)
C        0.6138146634   -1.0132120685    0.5097942806
C        2.9996442795   -1.1806370633    0.6372800501
C        0.5573045126   -1.1523102334    1.8832288604
C        2.8944277586   -1.3200954684    2.0046522723
C        1.8488403858   -1.0296175352   -0.1676261175
C        0.7574013614   -1.0508008889   -2.5281565648
C        1.7593064065   -2.1695895620   -2.4577110703
C        1.9760472854   -0.8841761129   -1.6406854422
C        3.0671014640    0.0686131649   -2.1175923312
C        1.5966980241   -1.4986824765    4.0871817232
N        1.6840204815   -1.3039008224    2.6208948969
H       -0.3171683803   -0.8709274626   -0.0249729419
H        3.9897379752   -1.1990086369    0.1972507577
H       -0.3791513306   -1.1339777817    2.4294503803
H        3.7599151586   -1.4494098692    2.6447968478
H        0.7310240986   -0.4383024883   -3.4234231621
H       -0.2194061396   -1.2259335180   -2.0902031064
H        1.4749571176   -3.0714775929   -1.9243463429
H        2.4407898461   -2.3276252811   -3.2881093359
H        3.0546137368    0.1295475020   -3.2083655635
H        4.0690304131   -0.2619361959   -1.8277241973
H        2.9064426758    1.0772356559   -1.7243818308
H        1.5540452233   -2.5667382886    4.3102970790
H        2.4715965634   -1.0543336336    4.5605081188
H        0.7002830377   -1.0056912619    4.4611901183
25   
torsion grid (150,)
C        0.6256899238   -1.1982364668    0.4901282906
C        3.0059980675   -1.0122463855    0.6632513087
C        0.5620928072   -1.3299519330    1.8617695434
C        2.8937117745   -1.1494284356    2.0303958871
C        1.8644912800   -1.0450257728   -0.1700365801
C        0.7493129729   -0.8937432408   -2.5125667221
C        1.5892350725   -2.1303595328   -2.4703637243
C        1.9975365922   -0.8946705411   -1.6367247487
C        3.1811267310   -0.0754070371   -2.1337418653
C        1.5954383536   -1.4932011831    4.0912530805
N        1.6835520686   -1.3054724325    2.6246698668
H       -0.3088776518   -1.2087276722   -0.0562826704
H        3.9972939525   -0.8796060880    0.2481512489
H       -0.3784820376   -1.4440132842    2.3888172469
H        3.7561657966   -1.1369900526    2.6874930589
H        0.8033418263   -0.2651227164   -3.3951345524
H       -0.2357855418   -0.9212293560   -2.0606356587
H        1.2086873195   -2.9935442645   -1.9332003518
H        2.2352856879   -2.3652884891   -3.3107551472
H        3.1250044763    0.0385215399   -3.2185586602
H        4.1426130586   -0.5511441027   -1.9163497658
H        3.1786320099    0.9270878674   -1.6942037888
H        1.7198579509   -2.5511562442    4.3314372762
H        2.3762647420   -0.9074945107    4.5754133468
H        0.6231293855   -1.1465375847    4.4390014597
25   
torsion grid (165,)
C        0.6740345703   -1.3967841195    0.4654745605
C        2.9963753305   -0.8528538386    0.6853162561
C        0.5975131359   -1.5121773639    1.8357240898
C        2.8699756239   -0.9799710481    2.0529987041
C        1.8934125568   -1.0669664108   -0.1722748102
C        0.7502943604   -0.7328144605   -2.4671089723
C        1.4270121454   -2.0599222872   -2.4877114655
C        2.0258193449   -0.9184399738   -1.6341064110
C        3.2769967845   -0.2312870898   -2.1562616440
C        1.5840651054   -1.4790462719    4.0914686934
N        1.6835700043   -1.3034384246    2.6244243616
H       -0.2333432409   -1.5715115636   -0.0997328126
H        3.9673998741   -0.5809155163    0.2915617519
H       -0.3263748277   -1.7635918543    2.3442960396
H        3.7046165846   -0.8251854682    2.7276530059
H        0.8586507027   -0.0841119196   -3.3299786991
H       -0.2034106573   -0.6303064796   -1.9608929926
H        0.9692622029   -2.8904016182   -1.9592542680
H        2.0088068840   -2.3435890152   -3.3591486350
H        3.2231110867   -0.1322096386   -3.2425931179
H        4.1863629640   -0.7998925571   -1.9348487845
H        3.3809914545    0.7758879217   -1.7395344142
H        1.8047817783   -2.5165945943    4.3509318305
H        2.2952004619   -0.8147276695    4.5811922317
H        0.5761923885   -1.2221366578    4.4156328802
25   
torsion grid (180,)
C        0.7308555215   -1.5568832005    0.4494593978
C        2.9570061959   -0.7055348580    0.6983828849
C        0.6451960732   -1.6631143392    1.8191112156
C        2.8227974708   -0.8305927304    2.0658297933
C        1.9049190311   -1.0672947257   -0.1728461548
C        0.7625651325   -0.5853881219   -2.4241482893
C        1.2993370466   -1.9713645284   -2.5013945749
C        2.0393697118   -0.9334521668   -1.6340120990
C        3.3525988171   -0.3945655259   -2.1739939428
C        1.5783829147   -1.4741361675    4.0897348839
N        1.6798517033   -1.3012953372    2.6225635483
H       -0.1343237631   -1.8596035683   -0.1285160098
H        3.8932395096   -0.3189819377    0.3165111915
H       -0.2431461745   -2.0360957511    2.3162399392
H        3.6179472502   -0.5596885425    2.7514761969
H        0.9107542349    0.0798599324   -3.2686533082
H       -0.1485203199   -0.3985115287   -1.8648026200
H        0.7723571077   -2.7747536667   -1.9967525917
H        1.8251158094   -2.2786053329   -3.3996226893
H        3.3185092146   -0.3494002677   -3.2647648252
H        4.1970947154   -1.0374797945   -1.9040580479
H        3.5530180622    0.6206362041   -1.8153204422
H        1.9162233662   -2.4757228405    4.3640479143
H        2.1980055469   -0.7257975979    4.5825319980
H        0.5421624404   -1.3352215259    4.3962240100
