23   
torsion grid (-165,)
C        1.1451348753    2.2529904680    3.0892116881
C       -0.9546619816    2.7642407928    1.4174446726
C        1.6082644940    1.1560530316   -2.1976576629
C        1.8221116965    3.4162472713   -0.0214071482
C        0.4603774506    0.0197156137    1.6917741268
C        0.6343069516    1.5920914785   -1.0987551844
N        1.3587651917    2.0289371666    0.1131741710
S        0.4217447766    1.8774445502    1.6684650172
H        1.8894255308    1.5543092251    3.4534764352
H        1.2165203498    3.3100164765    3.3106628639
H       -1.3455472942    2.7292342378    0.4062465582
H       -1.6500901508    2.7611124935    2.2491780825
H        1.0539814907    0.8033142194   -3.0744518061
H        2.2502568600    1.9808529815   -2.5197498476
H        2.2491522337    0.3455859968   -1.8383508006
H        2.2575202018    3.7448652760    0.9265276783
H        2.6150569791    3.4492031097   -0.7742315226
H        1.0207280368    4.1120680631   -0.3044624185
H       -0.0614996159   -0.3578064209    0.8149058526
H        1.4974389359   -0.3209762552    1.6981069936
H       -0.0663922553   -0.2769912082    2.5989901907
H       -0.0235194870    2.3920586816   -1.4739247124
H       -0.0124957321    0.7473748871   -0.8526146220
23   
torsion grid (-150,)
C        1.0629900390    2.3679620776    3.0550546994
C       -1.0486703645    2.6539315340    1.3542886147
C        1.4855854918    1.2306889481   -2.2563342582
C        1.9948140885    3.2889484157    0.0278668794
C        0.5804852530    0.0262563646    1.7690240068
C        0.5608149271    1.6657853628   -1.1152136970
N        1.3235099772    1.9892692031    0.1016602111
S        0.3820102592    1.8687128821    1.6530086649
H        1.8378188775    1.7411293310    3.4791539274
H        1.0312160019    3.4334418956    3.2408458378
H       -1.4366185380    2.5465530861    0.3483306788
H       -1.7473160188    2.6217756280    2.1833766483
H        0.8912875101    0.9256802624   -3.1246344424
H        2.1454765572    2.0424753617   -2.5751699339
H        2.1073430169    0.3867007989   -1.9430084082
H        2.4288864365    3.5244606210    1.0034996529
H        2.8168823122    3.2236952538   -0.6904896678
H        1.3197230578    4.1058884341   -0.2680886776
H        0.2618010879   -0.4154748633    0.8254648172
H        1.6306239099   -0.2039793362    1.9552568145
H       -0.0586317158   -0.3082073461    2.5871544454
H       -0.0553188489    2.5207535491   -1.4366732250
H       -0.1281337796    0.8454946722   -0.8918149830
23   
torsion grid (-135,)
C        0.9678880293    2.4844799570    3.0205833234
C       -1.1448976062    2.5317825451    1.3025721319
C        1.4012979110    1.3483914370   -2.3210571783
C        2.1526316450    3.1150112808    0.0648595585
C        0.6704932919    0.0494896809    1.8688973443
C        0.5040245368    1.7399958284   -1.1422349052
N        1.2826312782    1.9411091547    0.0853731581
S        0.3358491677    1.8614289083    1.6446388713
H        1.7651278627    1.9267768212    3.4964289499
H        0.8718634336    3.5552726185    3.1437430438
H       -1.5297516184    2.3441208655    0.3083299893
H       -1.8370320273    2.4784775660    2.1363645156
H        0.7840343789    1.1035194609   -3.1922337549
H        2.0721723300    2.1623581244   -2.6096588899
H        2.0090629011    0.4746575139   -2.0663262076
H        2.5535821896    3.2844568377    1.0679380521
H        2.9986051426    2.9239671375   -0.6014696948
H        1.6358951834    4.0305947761   -0.2653016584
H        0.3835012598   -0.4545126974    0.9454240922
H        1.7364361151   -0.0910046122    2.0541638036
H        0.0626171116   -0.2943497631    2.7072512523
H       -0.0803440980    2.6380112641   -1.4000867830
H       -0.2091088805    0.9279074310   -0.9656404089
23   
torsion grid (-120,)
C        0.8467129591    2.6340456444    2.9638914681
C       -1.2333779809    2.3553588737    1.2309561378
C        1.3313325201    1.5278861312   -2.4073424943
C        2.2941441291    2.8607942018    0.1009558417
C        0.7563915459    0.0904497824    2.0279428071
C        0.4658296298    1.8363094218   -1.1804687516
N        1.2598786835    1.8283241242    0.0551425638
S        0.2955437503    1.8428999603    1.6365725074
H        1.6700672105    2.1770941031    3.4997557429
H        0.6989489103    3.7064341329    2.9711461162
H       -1.6115811628    2.0260229157    0.2727390186
H       -1.9093076778    2.3261987706    2.0790326731
H        0.6899354155    1.4082666821   -3.2871605008
H        2.0400699629    2.3321166680   -2.6228824279
H        1.8940560338    0.6008127414   -2.2586100188
H        2.7069674938    2.9249236323    1.1109672448
H        3.1092726765    2.5830705605   -0.5728464427
H        1.9237592795    3.8606314997   -0.1810057118
H        0.4720095296   -0.5095676657    1.1631402612
H        1.8353295802    0.0309257078    2.1820495187
H        0.2016922472   -0.2084649752    2.9189247009
H       -0.0577709612    2.7947212501   -1.3227756439
H       -0.2933242368    1.0526879733   -1.0975660051
23   
torsion grid (-105,)
C        0.7131183001    2.8139142296    2.8488156324
C       -1.3085954849    2.1238726864    1.1627458016
C        1.2863719034    1.7447893503   -2.4758102439
C        2.3949219194    2.5361259866    0.1395832872
C        0.8426568461    0.1641728640    2.1991627026
C        0.4490241470    1.9514121356   -1.2080435979
N        1.2259478150    1.6605138125    0.0111768531
S        0.2612212252    1.8213304154    1.6173630631
H        1.5794107035    2.5048867770    3.4225992849
H        0.4930543008    3.8650367166    2.7087560897
H       -1.6580681783    1.6088921226    0.2779782000
H       -1.9701762291    2.1605456184    2.0212885457
H        0.6319477224    1.7994126989   -3.3523009165
H        2.0591591381    2.5088005394   -2.5954995622
H        1.7678254016    0.7614901294   -2.4660281594
H        2.8704721175    2.3902046298    1.1127079058
H        3.1282530096    2.2641235859   -0.6232270279
H        2.1553284381    3.6076032609    0.0391025201
H        0.5418708466   -0.5475947150    1.4313869183
H        1.9303460767    0.1655215156    2.3003964614
H        0.3524482460   -0.0390253231    3.1523972627
H        0.0260630334    2.9670223504   -1.1953639670
H       -0.3860217602    1.2488907492   -1.2466284483
23   
torsion grid (-90,)
C        0.5780325096    2.9443921143    2.7166628799
C       -1.3615092216    1.8627048432    1.1233280593
C        1.2216873504    1.8499297082   -2.4972369398
C        2.4540582357    2.2913594344    0.1724182797
C        0.9457819986    0.2483957924    2.2878577120
C        0.4671620804    2.1522767827   -1.1972698962
N        1.1742164040    1.5963725720   -0.0231034676
S        0.2350967853    1.8017767780    1.5800795795
H        1.4974619165    2.7969865389    3.2724582400
H        0.2441802027    3.9474930045    2.4794124177
H       -1.6389690317    1.1722396229    0.3351453184
H       -2.0133311272    1.9192364049    1.9882598307
H        0.5913847306    2.1200263378   -3.3511813761
H        2.1532322459    2.4156361440   -2.5866058472
H        1.4563844776    0.7828242576   -2.5661815055
H        2.9281157597    1.9712536711    1.1039242106
H        3.1320535452    2.0197695807   -0.6395839753
H        2.3525351884    3.3877029593    0.2036707415
H        0.7129405838   -0.5360297928    1.5694089664
H        2.0264777464    0.3271373958    2.4264093218
H        0.4421228239    0.0855376153    3.2412360254
H        0.3025138290    3.2362630834   -1.0971768494
H       -0.5150494952    1.6886572878   -1.2593731203
23   
torsion grid (-75,)
C        0.3668017251    2.9977449345    2.6432603059
C       -1.3292388286    1.6121559776    0.9815319857
C        0.9700540985    1.7687522507   -2.4926474945
C        2.5554959817    2.1786623740    0.2418523147
C        1.0696553069    0.3534943853    2.3283728469
C        0.6127786690    2.4248918820   -1.1570912884
N        1.2083394413    1.6618870514   -0.0333370193
S        0.2276520256    1.7915651328    1.5295698162
H        1.2654606612    2.9864822565    3.2493095879
H       -0.0923382423    3.9390555023    2.3659481484
H       -1.4368612486    0.8715287396    0.1950243853
H       -2.0472405087    1.6063039940    1.7934038143
H        0.5252136827    2.3339464719   -3.3194424478
H        2.0518892665    1.7314965388   -2.6585222173
H        0.5881381627    0.7440543274   -2.5264809965
H        3.0877428942    1.5374959309    0.9494275919
H        3.1248064119    2.1686429512   -0.6907642396
H        2.5471643827    3.2088585938    0.6334307926
H        1.1472109623   -0.4181112536    1.5632797567
H        2.0534760435    0.6174684271    2.7217438933
H        0.4074334908    0.0469986448    3.1381962735
H        0.9524270297    3.4723508338   -1.1403153427
H       -0.4694818703    2.4462161894   -1.0331918619
23   
torsion grid (-60,)
C        0.2222982444    3.0615834033    2.5201399192
C       -1.3070096108    1.3952176908    0.9636610507
C        0.8923953210    1.9017007282   -2.4936118655
C        2.5784239900    1.9564168002    0.2036761161
C        1.2020662147    0.5043009153    2.4358130797
C        0.6214724177    2.4916426317   -1.1083733335
N        1.1739895837    1.6125314088   -0.0502033213
S        0.2130008556    1.7624299208    1.5070493380
H        1.1034495793    3.1859414916    3.1388168849
H       -0.3286914561    3.9265436744    2.1712736696
H       -1.3337733496    0.6245350098    0.2008261863
H       -2.0518175781    1.3980699853    1.7498487775
H        0.4749534864    2.5553018109   -3.2677393254
H        1.9630367556    1.7895099903   -2.6949044430
H        0.4269179264    0.9156787618   -2.5821991942
H        3.0867840028    1.1662792526    0.7603124023
H        3.0890486251    2.0515852557   -0.7572916980
H        2.6939601459    2.9123123379    0.7431365092
H        1.3941219486   -0.3194409969    1.7480959131
H        2.1312311578    0.9203503006    2.8293265298
H        0.5522149158    0.1867214844    3.2514237047
H        1.0434883983    3.5062263301   -1.0314722309
H       -0.4549820365    2.5765039490   -0.9550460637
23   
torsion grid (-45,)
C        0.0733122093    3.0853029262    2.4080759173
C       -1.2810234959    1.2138022374    0.9337294062
C        0.8473845109    2.0555147925   -2.4759973106
C        2.5959476652    1.7232373577    0.1634640725
C        1.2726462724    0.6411334496    2.5222142333
C        0.6744774165    2.5753368846   -1.0481234232
N        1.1541760927    1.5808241792   -0.0619074989
S        0.1909789021    1.7276740478    1.4810438467
H        0.9318942793    3.3227170217    3.0259758806
H       -0.5367333271    3.8784751921    1.9930244239
H       -1.2374863421    0.4174636581    0.2001598723
H       -2.0565375331    1.2284277191    1.6890266306
H        0.4831495856    2.7997547450   -3.1930075773
H        1.8949688225    1.8467184866   -2.7174017170
H        0.2773838716    1.1319536031   -2.6120041308
H        3.0168605873    0.8324162154    0.6320811135
H        3.0830704753    1.8364338488   -0.8081294664
H        2.8547007229    2.6113893100    0.7664783135
H        1.4817343420   -0.2607277004    1.9462070965
H        2.1927660783    1.1435706841    2.8248993214
H        0.6605697548    0.4040155626    3.3924962195
H        1.1988917100    3.5352525728   -0.9182852912
H       -0.3865530625    2.7512553423   -0.8614613268
23   
torsion grid (-30,)
C       -0.0779288066    3.0833099360    2.3242568055
C       -1.2422454476    1.0524441906    0.9130762564
C        0.8145856532    2.1961504343   -2.4466851392
C        2.5981233548    1.5130558836    0.1026162932
C        1.3291978963    0.7816219594    2.5942027625
C        0.7410919046    2.6530984873   -0.9890490400
N        1.1460782681    1.5727374508   -0.0682455993
S        0.1732204895    1.6988807452    1.4641859742
H        0.7480277536    3.4222217385    2.9399576659
H       -0.7402479713    3.8034880446    1.8592298634
H       -1.1289390010    0.2479707650    0.1974300330
H       -2.0410392109    1.0474241584    1.6440259705
H        0.5034917981    3.0096121518   -3.1116757214
H        1.8280444498    1.8999982955   -2.7369984768
H        0.1508295154    1.3415720756   -2.6052247680
H        2.9080567500    0.5693807101    0.5525564672
H        3.0543927757    1.5598411669   -0.8900727166
H        3.0106867099    2.3519587162    0.6900933218
H        1.5597959151   -0.1786690710    2.1328578780
H        2.2367307589    1.3505867800    2.8025726874
H        0.7489832851    0.6315965887    3.5045657100
H        1.3584430665    3.5518313548   -0.8308815393
H       -0.2928003693    2.9218295744   -0.7602360831
23   
torsion grid (-15,)
C       -0.2165793754    3.0682356811    2.2624642716
C       -1.2043242736    0.9132442106    0.9161125275
C        0.8163880866    2.3232537633   -2.4168740701
C        2.5672890399    1.3200633121    0.0351897303
C        1.3811818792    0.9253299480    2.6444806861
C        0.8072421497    2.7177284708   -0.9388848181
N        1.1332712436    1.5755942979   -0.0710249624
S        0.1540763748    1.6780157478    1.4569387746
H        0.5689949669    3.4922653396    2.8785823058
H       -0.9282401230    3.7171933578    1.7668158666
H       -1.0317024533    0.1182119666    0.2026281899
H       -2.0086330586    0.8623502582    1.6397272581
H        0.5459374114    3.1852292845   -3.0370162391
H        1.8004982295    1.9747938777   -2.7468985970
H        0.0921618071    1.5231551855   -2.5936856803
H        2.7627836514    0.3429026409    0.4780785482
H        2.9775859904    1.2971537350   -0.9788391615
H        3.1248374369    2.0919067702    0.5938778124
H        1.6385778844   -0.0716739485    2.2884514341
H        2.2712021637    1.5476513258    2.7527461189
H        0.8370037739    0.8576029404    3.5861619213
H        1.4945410773    3.5601277798   -0.7563758576
H       -0.1975143449    3.0616061912   -0.6800974539
23   
torsion grid (0,)
C       -0.3482155664    3.0510978381    2.1861323134
C       -1.1612111198    0.7604534229    0.9595313083
C        0.8341926584    2.4564473584   -2.3876333327
C        2.4974862059    1.1282165839   -0.0298305376
C        1.4280182876    1.0831499207    2.6723597723
C        0.8961325482    2.7776351483   -0.8927230076
N        1.1079287788    1.5698251640   -0.0867774180
S        0.1323158845    1.6588900095    1.4496633962
H        0.3924966547    3.5702945094    2.7845362651
H       -1.1288091534    3.6029523556    1.6776280470
H       -0.9328866563   -0.0166446692    0.2422482987
H       -1.9399217874    0.6397844992    1.7033212832
H        0.6465151242    3.3708074293   -2.9617656775
H        1.7695322914    2.0219281938   -2.7553451217
H        0.0258921509    1.7462701758   -2.5826826134
H        2.5715177984    0.1246086567    0.3921857727
H        2.8701161971    1.0655422747   -1.0572951513
H        3.1720834209    1.8055652310    0.5215879831
H        1.7581457656    0.0847751685    2.3897428167
H        2.2700863359    1.7772225571    2.7129887609
H        0.9056573151    1.0474026631    3.6281141654
H        1.6754008132    3.5319014523   -0.6910536310
H       -0.0558944096    3.2238161932   -0.5923750866
23   
torsion grid (15,)
C       -0.4943300573    3.0199077735    2.0979712734
C       -1.1133148587    0.5540927468    1.1084696602
C        0.9596568395    2.6456939645   -2.3553498142
C        2.3265972021    0.9100570246   -0.1287451203
C        1.4978220618    1.2843000102    2.6503226844
C        0.9644116621    2.8151483904   -0.8338661386
N        1.0004395294    1.5207318099   -0.1458596662
S        0.0908191348    1.6264482998    1.4531943461
H        0.2054098188    3.6560731963    2.6289218423
H       -1.3609217451    3.4379089535    1.6016155145
H       -0.8557278060   -0.2046916428    0.3813779620
H       -1.7980288526    0.3544575151    1.9245909907
H        0.8623023386    3.6234857608   -2.8400022145
H        1.8823259371    2.1862977019   -2.7240513494
H        0.1177558452    2.0171564347   -2.6589537864
H        2.2821094727   -0.0891618721    0.3103717175
H        2.6543424050    0.7822132851   -1.1657400503
H        3.0982991326    1.5025386791    0.3914598890
H        1.9008736224    0.2951609659    2.4417158007
H        2.2762649792    2.0468635275    2.5680799445
H        1.0379447762    1.3025075947    3.6382882589
H        1.8040686627    3.4632843941   -0.5253216207
H        0.0474594375    3.3314676230   -0.5359315183
23   
torsion grid (30,)
C       -0.6476756787    2.9728671457    2.0070260079
C       -1.0307524992    0.3766582791    1.2296721894
C        1.0687403250    2.7985115660   -2.2938095733
C        2.1461079525    0.7319627048   -0.2071166469
C        1.5380991657    1.4802857661    2.5885011502
C        1.0664335052    2.8447144199   -0.7635980639
N        0.9056197409    1.5063873299   -0.1867135217
S        0.0519770815    1.6018715818    1.4436517541
H       -0.0048859846    3.7112471438    2.4735449623
H       -1.5781201753    3.2546463483    1.5308396073
H       -0.7360680809   -0.3725352333    0.5056908767
H       -1.6044971248    0.1142716113    2.1111329919
H        1.1185836059    3.8153046922   -2.6987445546
H        1.9256493750    2.2436481826   -2.6887243837
H        0.1541398193    2.3203556276   -2.6556491230
H        1.9918044033   -0.2416865981    0.2652711877
H        2.4141541417    0.5379583666   -1.2512297701
H        3.0012976295    1.2376459254    0.2711872179
H        2.0109357419    0.5127552397    2.4325416810
H        2.2459299434    2.2919041005    2.3976486421
H        1.1357612305    1.5451123852    3.5995804722
H        1.9869333256    3.3373315279   -0.3999735550
H        0.2264120943    3.4607240233   -0.4281709431
23   
torsion grid (45,)
C        1.2197323929    0.2486731707    2.3766699277
C        1.3920956946    2.9382913529    1.9428170799
C        2.7164211790    2.6881975546   -1.1598541791
C       -0.3328206345    2.2558522309   -1.0182555676
C       -1.2057440653    1.3240761850    1.7147339273
C        1.9905802534    1.3780500515   -0.8298741638
N        0.6447998932    1.4841673612   -0.2526202121
S        0.6308324327    1.5225101455    1.5252619794
H        0.6318221626   -0.6621298944    2.3272665152
H        2.3004602770    0.1954551725    2.4234961165
H        1.1629905436    3.7663879694    1.2785947000
H        1.4202840927    3.1268696259    3.0111345314
H        3.6677484071    2.4629770511   -1.6554592029
H        2.1311149643    3.3134763400   -1.8430760257
H        2.9252925550    3.2560985537   -0.2514098798
H       -0.2601957260    3.3462743146   -0.8835862565
H       -0.1670006194    2.0418324921   -2.0797097751
H       -1.3505653405    1.9394510761   -0.7848954049
H       -1.6809847770    2.2414502181    1.3707476207
H       -1.5672768901    0.4553929681    1.1594110666
H       -1.3645385928    1.2019003599    2.7861507849
H        1.8887918941    0.7725522296   -1.7404782655
H        2.5927394413    0.7841356075   -0.1345067112
23   
torsion grid (60,)
C        1.3249984469    0.3459055881    2.3465022523
C        1.2490836981    3.0396394426    1.8955234410
C        2.7614325847    2.5669985812   -1.1181031906
C       -0.2923165659    2.4215326134   -0.9956869386
C       -1.2004923230    1.1706384122    1.7254170886
C        1.9202777385    1.3098623642   -0.8617721303
N        0.5830916249    1.4942234837   -0.2789839164
S        0.6059664654    1.5578380494    1.5102940111
H        0.8089850177   -0.6079704931    2.3486597783
H        2.4055837205    0.3928731423    2.3906528922
H        0.9639331071    3.8350702793    1.2136547874
H        1.2583058298    3.2545345286    2.9592854716
H        3.7132002998    2.2782943413   -1.5786743580
H        2.2616591137    3.2576279497   -1.8059173245
H        2.9703322388    3.0919150836   -0.1836285995
H       -0.0048487188    3.4798626971   -0.9087344878
H       -0.2665637328    2.1533798574   -2.0582923482
H       -1.3249989198    2.3126771057   -0.6615162293
H       -1.7745857013    2.0309860857    1.3854376865
H       -1.4654056607    0.2721791815    1.1643554956
H       -1.3422908361    1.0313923201    2.7972755550
H        1.7685283741    0.7659272789   -1.8033860329
H        2.4627037366    0.6265542434   -0.1998042980
23   
torsion grid (75,)
C        1.4376266881    0.4581629585    2.2953369949
C        1.0803014642    3.1334925949    1.8811406199
C        2.8049175095    2.4139459875   -1.0727785103
C       -0.2414447128    2.6166350398   -0.9659102113
C       -1.1646024935    1.0054740209    1.7283380086
C        1.8179946846    1.2497857547   -0.9091775099
N        0.5107371255    1.5496529440   -0.3054554643
S        0.5785269691    1.5977121251    1.4928781617
H        1.0248045226   -0.5434810308    2.3171691652
H        2.5055039618    0.6277271245    2.3433382723
H        0.7152885334    3.9068858244    1.2136765424
H        1.0728354161    3.3373792320    2.9473019719
H        3.7446619445    2.0368359566   -1.4920366960
H        2.4252680124    3.1797386378   -1.7571842009
H        3.0137826158    2.8854778977   -0.1093903095
H        0.2538613783    3.5974002122   -0.9485106858
H       -0.3898828266    2.3291960380   -2.0139296090
H       -1.2291834442    2.7262960047   -0.5134362177
H       -1.8328691884    1.6572578242    1.1678045079
H       -1.2499333131   -0.0229404336    1.3729038837
H       -1.3686500334    1.0797734845    2.7971353161
H        1.6044560197    0.7980798561   -1.8865279567
H        2.2725787044    0.4614540829   -0.3001274678
23   
torsion grid (90,)
C        1.5431798819    0.6073208467    2.2650448436
C        0.9085468097    3.2316009534    1.8748719865
C        2.8169489795    2.2459819438   -1.0323418656
C       -0.1761926790    2.7746213318   -0.9567622500
C       -1.1074564270    0.8701780989    1.7291831186
C        1.7074388105    1.1888216820   -0.9394105696
N        0.4306555661    1.5984694797   -0.3303656837
S        0.5538708889    1.6545070563    1.4842496203
H        1.2277725188   -0.4283838571    2.3040953964
H        2.5917350510    0.8756382646    2.2797547880
H        0.4349909875    3.9792519682    1.2499214473
H        0.9184940088    3.4049536848    2.9463651492
H        3.7230445577    1.7875933462   -1.4443611486
H        2.5402009190    3.0755999981   -1.6904635012
H        3.0491746084    2.6593364842   -0.0473979960
H        0.4387442592    3.6825143494   -0.9097630771
H       -0.3599810185    2.5387252869   -2.0120247396
H       -1.1446155160    2.9881353095   -0.4948671496
H       -1.8302076261    1.4373790546    1.1420964432
H       -1.0705029977   -0.1631701603    1.3805385942
H       -1.3370618610    0.9309461006    2.7940638344
H        1.4580958490    0.8144744799   -1.9403518833
H        2.0697039670    0.3274464341   -0.3695167522
23   
torsion grid (105,)
C        1.6337133111    0.7675991902    2.2514627540
C        0.7120350255    3.3104261387    1.9048762845
C        2.8037986844    2.0719778321   -1.0297795002
C       -0.0771857228    2.9381119052   -0.9605502131
C       -1.0300255122    0.7399490449    1.7314109085
C        1.5872540379    1.1376882350   -0.9545192912
N        0.3602905619    1.6817287896   -0.3469138958
S        0.5281603996    1.7102944926    1.4874269130
H        1.4219656593   -0.2944374183    2.2873583711
H        2.6536842872    1.1299830936    2.2354863417
H        0.1299291348    4.0157050962    1.3254694491
H        0.7362594436    3.4475665342    2.9812590657
H        3.6665303704    1.5208388078   -1.4201746900
H        2.6272386265    2.9228400981   -1.6946322311
H        3.0614792617    2.4656798326   -0.0428135752
H        0.6224586290    3.7737761179   -0.8363932288
H       -0.2115550793    2.7555198640   -2.0335756654
H       -1.0505790944    3.2307423137   -0.5555406244
H       -1.8174645158    1.2647439631    1.1895080303
H       -0.8972507272   -0.2608471741    1.3166137021
H       -1.2368649351    0.7117897314    2.8024622713
H        1.3062731631    0.8034008931   -1.9611023516
H        1.8564345287    0.2368647546   -0.3947802192
23   
torsion grid (120,)
C        1.7092451337    0.9602952704    2.2754773693
C        0.4683085786    3.3679331991    1.9706809327
C        2.7740191258    1.8667259715   -1.0816417896
C        0.0609354092    3.1171358552   -0.9398810784
C       -0.9210453172    0.6106083941    1.6976863089
C        1.4519904277    1.0954279062   -0.9590905051
N        0.3243465806    1.8079380572   -0.3361745818
S        0.5067541666    1.7728057831    1.5021679393
H        1.6276559889   -0.1203909702    2.2881823303
H        2.6805881957    1.4383510739    2.2734641234
H       -0.2021068699    4.0090803958    1.4131076695
H        0.4758468589    3.4660793286    3.0510864072
H        3.5492613061    1.2106568250   -1.4928249235
H        2.6816995633    2.7289824089   -1.7485594370
H        3.1134382774    2.2277397966   -0.1071999307
H        0.8171118659    3.8809511120   -0.7209671129
H        0.0121691280    2.9744042745   -2.0257297766
H       -0.9167632713    3.4851733260   -0.6173111605
H       -1.7713171290    1.0846988720    1.2079524954
H       -0.6908186975   -0.3373412327    1.2065615661
H       -1.0957255610    0.4775674186    2.7665084654
H        1.1089829984    0.7802086545   -1.9524886690
H        1.6220027789    0.1769104159   -0.3884480371
23   
torsion grid (135,)
C        1.7729836484    1.1727918176    2.3063533582
C        0.2109523615    3.3891190146    2.0280197620
C        2.7168278388    1.6550444126   -1.1349381811
C        0.2215704430    3.2816804427   -0.8951239645
C       -0.7810433174    0.4946187271    1.6424287251
C        1.3059704750    1.0740138790   -0.9629932971
N        0.3093658633    1.9394621889   -0.3125467181
S        0.4905007069    1.8347721371    1.5137849821
H        1.8460341455    0.0914341353    2.2763825055
H        2.6691596138    1.7798816013    2.3405617429
H       -0.5414488783    3.9393388003    1.4770243380
H        0.1937803403    3.4524194591    3.1104285366
H        3.3703639205    0.9102801766   -1.6027009619
H        2.7135533683    2.5416892718   -1.7756465224
H        3.1504381616    1.9308306809   -0.1705734570
H        1.0299946196    3.9616152364   -0.5994899993
H        0.2392152978    3.1673156458   -1.9848673093
H       -0.7340880490    3.7413517801   -0.6340508835
H       -1.6856829796    0.8965626408    1.1881913017
H       -0.4550128410   -0.3968008195    1.1015779870
H       -0.9213408771    0.2827216575    2.7031992259
H        0.8941972130    0.7990944422   -1.9422018191
H        1.3702884631    0.1427048080   -0.3902607463
23   
torsion grid (150,)
C        1.8106156502    1.3718676598    2.3242424156
C       -0.0256517272    3.3707093034    2.0540924249
C        2.6372879638    1.4810304427   -1.1736820898
C        0.3991003034    3.4053131574   -0.8349499913
C       -0.6417394828    0.4006438722    1.6109741970
C        1.1658165091    1.0787177525   -0.9920453378
N        0.2889934775    2.0420494667   -0.2999349168
S        0.4689171573    1.8820804183    1.5115456215
H        2.0388152142    0.3148807598    2.2381623887
H        2.6176867982    2.0927539343    2.3826164376
H       -0.8569457990    3.8060152566    1.5117485006
H       -0.0513185095    3.4098915431    3.1372754485
H        3.1795512820    0.6714533432   -1.6748521061
H        2.7395555350    2.3778053420   -1.7912966358
H        3.1183943895    1.6689672932   -0.2111000476
H        1.2913687897    3.9520600528   -0.5057543389
H        0.4197556032    3.3244430389   -1.9274587446
H       -0.4802202617    3.9903387249   -0.5657740130
H       -1.5425128129    0.6605043577    1.0568285782
H       -0.1735244154   -0.4900032583    1.1869324308
H       -0.8492072697    0.2542200533    2.6712873131
H        0.7105522529    0.8891338305   -1.9721030356
H        1.1212888902    0.1270657915   -0.4541958937
23   
torsion grid (165,)
C        1.8344833661    1.5948230427    2.3554085636
C       -0.2530394000    3.3277454711    2.0578027068
C        2.5269842120    1.2870589443   -1.2032114599
C        0.5768664775    3.5023835883   -0.7575127809
C       -0.4580798650    0.3185791884    1.5823703384
C        1.0076716238    1.1090905189   -1.0497709890
N        0.2794919874    2.1414665832   -0.2868585522
S        0.4560566900    1.9331664711    1.5103927604
H        2.2185394310    0.5870264696    2.2401694773
H        2.5286030023    2.4224452234    2.4476560569
H       -1.1305755151    3.6379417963    1.5012489220
H       -0.2877039360    3.3671182594    3.1401998407
H        2.9385227276    0.4408738959   -1.7646699282
H        2.7737008053    2.1986955188   -1.7546439127
H        3.0258906127    1.3302411221   -0.2325465013
H        1.5605091464    3.8787470263   -0.4451786247
H        0.5462963241    3.4810718646   -1.8526038121
H       -0.1798199808    4.2012299327   -0.4079004597
H       -1.2755522081    0.3805738268    0.8644898681
H        0.1895507121   -0.5356416499    1.3761989441
H       -0.8347618768    0.2636488331    2.6039239338
H        0.5421017208    1.0782939446   -2.0428202505
H        0.8008434806    0.1353622647   -0.5995855355
23   
torsion grid (180,)
C        1.8373865212    1.8617470572    2.3789044460
C       -0.4780840581    3.2609632672    2.0327897509
C        2.3883755908    1.0396636901   -1.1598771782
C        0.7298141866    3.5699990708   -0.6908733604
C       -0.2204497531    0.2635020370    1.5492255172
C        0.8564232861    1.1673158156   -1.1306456255
N        0.2694646821    2.2298953157   -0.2918096909
S        0.4433839731    1.9945226351    1.5018892187
H        2.3729224600    0.9247603786    2.2717738557
H        2.3962508914    2.7840273232    2.4883715348
H       -1.3613606080    3.4601725033    1.4367000410
H       -0.5301863764    3.3245034292    3.1124825604
H        2.6738209062    0.2364612003   -1.8482672779
H        2.8639591248    1.9604322059   -1.5093215034
H        2.7985855849    0.8068067862   -0.1748031766
H        1.7737647561    3.7774695145   -0.4119822596
H        0.6465415443    3.6377833036   -1.7806727960
H        0.0994636561    4.3332543323   -0.2403912066
H       -1.0949315228    0.2331945704    0.8989164074
H        0.5244661089   -0.4785015572    1.2542654656
H       -0.5088715307    0.1162617333    2.5900795846
H        0.4939748113    1.3661504917   -2.1466621657
H        0.4118653034    0.2115570324   -0.8475335361
