15   
torsion grid (-165,)
C        2.1643116137   -3.7846146082    0.9706826338
C        2.4106506262   -2.2901020781    1.2477759183
C        2.9381030180   -2.0809625277    2.6818358015
C        1.1372613553   -1.5093910246    1.0332765564
C        0.9569511393   -0.5529951365    0.1160360040
H        1.8472006026   -3.9482698108   -0.0640874312
H        1.3802460290   -4.1754859908    1.6299462398
H        3.0726554344   -4.3719376774    1.1491989070
H        3.1600482983   -1.9172312859    0.5388371558
H        2.8680464807   -1.0312829344    2.9836618737
H        2.3400735212   -2.6592167645    3.3972024446
H        3.9777849858   -2.4121218190    2.7752131437
H        0.3085727269   -1.7702717595    1.6965407786
H        0.0090492089   -0.0297893747    0.0147943313
H        1.7546206484   -0.2614792657   -0.5657913259
15   
torsion grid (-150,)
C        2.1680459537   -3.9121799758    0.9777276963
C        2.4131017237   -2.4150914000    1.2432948545
C        2.9465874260   -2.1912252542    2.6790245976
C        1.1337288130   -1.6446642504    1.0245336442
C        0.9406416461   -0.7076668414    0.0900881045
H        1.8557071430   -4.0852433609   -0.0570239344
H        1.3810373777   -4.2958252900    1.6375462023
H        3.0753344561   -4.4983147501    1.1659639586
H        3.1545967820   -2.0446352855    0.5256386773
H        2.6429817335   -1.2171918107    3.0745126313
H        2.5364240647   -2.9449201636    3.3622161650
H        4.0374699255   -2.2695574824    2.7198006583
H        0.3118667902   -1.8969935687    1.6995114101
H       -0.0109471269   -0.1917347105   -0.0137950674
H        1.7313541466   -0.4252648794   -0.6035748542
15   
torsion grid (-135,)
C        2.1482105557   -3.9383935456    0.9945780153
C        2.4117167832   -2.4419750430    1.2470925061
C        2.9592622511   -2.2063899103    2.6821608752
C        1.1461941902   -1.6531570416    1.0158873813
C        0.9724523890   -0.7201278488    0.0736375091
H        1.8147300059   -4.1141624754   -0.0331995736
H        1.3711504275   -4.3130863682    1.6713761084
H        3.0548339231   -4.5296342033    1.1683899188
H        3.1557166277   -2.0950416072    0.5208764189
H        2.4645564386   -1.3614626910    3.1705738057
H        2.7871081571   -3.0827782242    3.3171655037
H        4.0362145743   -2.0133883485    2.6747568601
H        0.3171840718   -1.8870729355    1.6886754094
H        0.0295936386   -0.1901908563   -0.0388699550
H        1.7711919972   -0.4551106507   -0.6176529799
15   
torsion grid (-120,)
C        2.2567021657   -4.0257635077    1.0665442467
C        2.4937161018   -2.5230581839    1.3077889065
C        3.0816958139   -2.2653645261    2.7249393170
C        1.2165866239   -1.7481874919    1.0991152255
C        1.0202918726   -0.8107870449    0.1656110885
H        1.8750726823   -4.2091166034    0.0569401852
H        1.5268590820   -4.4251390074    1.7812558015
H        3.1880396937   -4.5897560269    1.1909015968
H        3.2152114920   -2.1760058596    0.5591840166
H        2.4281434509   -1.6222911330    3.3226289059
H        3.2256171056   -3.1988618203    3.2788667125
H        4.0524431230   -1.7638177516    2.6650143220
H        0.3998711498   -1.9958389192    1.7818858381
H        0.0703085620   -0.2905269198    0.0690403889
H        1.8071068216   -0.5321705868   -0.5338993540
15   
torsion grid (-105,)
C        2.2364924655   -4.0223972654    1.1149787426
C        2.4851591029   -2.5221233044    1.3589428747
C        3.0852957991   -2.2710514718    2.7680995349
C        1.2231866740   -1.7229213339    1.1563904578
C        1.0521150328   -0.7593773031    0.2447498374
H        1.8244031643   -4.1975269664    0.1159116570
H        1.5279071553   -4.4283599838    1.8475502371
H        3.1708131287   -4.5870976193    1.2066393692
H        3.2120506854   -2.1880278574    0.6089236952
H        2.3388406812   -1.8568658867    3.4542158449
H        3.4938144161   -3.1859086114    3.2088283559
H        3.8923172593   -1.5328284274    2.7189534439
H        0.3960729855   -1.9731601990    1.8255596589
H        0.1121022888   -0.2205577369    0.1525562635
H        1.8502381340   -0.4773433264   -0.4404112319
15   
torsion grid (-90,)
C        2.3128150429   -4.0610732090    1.1609822177
C        2.5539911197   -2.5619148886    1.4177650421
C        3.1782536819   -2.3254919337    2.8120782644
C        1.2839111778   -1.7668206509    1.2557487435
C        1.0901159892   -0.7838564488    0.3697497714
H        1.8787055782   -4.2272875604    0.1697995383
H        1.6251865981   -4.4833772659    1.9043141474
H        3.2539376244   -4.6182770815    1.2232445285
H        3.2664478645   -2.2121102942    0.6602362317
H        2.4040696556   -2.1837584694    3.5748589232
H        3.8252327745   -3.1551619195    3.1147382671
H        3.7766380143   -1.4082454940    2.8135791091
H        0.4707358694   -2.0371859907    1.9341134174
H        0.1454217459   -0.2489563863    0.3072640476
H        1.8734744578   -0.4813885294   -0.3236819417
15   
torsion grid (-75,)
C        2.2996552711   -4.0964835807    1.1602096700
C        2.5749489601   -2.5995770008    1.3932128751
C        3.2104596288   -2.3630071762    2.7770495374
C        1.3149906831   -1.7862329105    1.2390918417
C        1.1217672445   -0.8151575001    0.3399774107
H        1.8622557448   -4.2684069078    0.1715548955
H        1.6012873169   -4.4889852633    1.9096428342
H        3.2264798474   -4.6762900080    1.2326841726
H        3.2877861508   -2.2668163204    0.6279917601
H        2.4630645294   -2.4591766689    3.5737321757
H        4.0184275299   -3.0764212691    2.9720995189
H        3.6211807116   -1.3503072846    2.8464844622
H        0.5088988843   -2.0320865145    1.9350255934
H        0.1847363977   -0.2661916842    0.2842930653
H        1.8976751506   -0.5369836074   -0.3718033000
15   
torsion grid (-60,)
C        2.2324660484   -4.0704255197    1.1670679620
C        2.5520266210   -2.5787986484    1.3752017439
C        3.1756424294   -2.3418258230    2.7628126621
C        1.3090862709   -1.7420638165    1.2017352785
C        1.1322330792   -0.7960200826    0.2730745125
H        1.8218989107   -4.2508353963    0.1685735185
H        1.4957305358   -4.4173881806    1.9016793994
H        3.1338006779   -4.6827453284    1.2846709200
H        3.2782336037   -2.2703365544    0.6125785572
H        2.4892863467   -2.6573410887    3.5579605079
H        4.1008407511   -2.9182601415    2.8766072364
H        3.4087373284   -1.2836057118    2.9171026362
H        0.5011931925   -1.9483227193    1.9083952711
H        0.2070480472   -0.2287388061    0.2042458308
H        1.9100763667   -0.5575578886   -0.4509521233
15   
torsion grid (-45,)
C        2.2387405004   -4.1062192454    1.1686426621
C        2.5767439689   -2.6174235574    1.3682440140
C        3.2142148224   -2.3848605650    2.7531192463
C        1.3315070957   -1.7799045555    1.2091157750
C        1.1360354551   -0.8485640772    0.2694256336
H        1.8422346466   -4.2907368750    0.1652589423
H        1.4844596624   -4.4318830542    1.8947154620
H        3.1275402051   -4.7327302139    1.3080364989
H        3.2926446487   -2.3097666030    0.5962891480
H        2.6619351411   -2.9220249357    3.5333090666
H        4.2392904120   -2.7733972161    2.7705592472
H        3.2491759237   -1.3223672654    3.0110044043
H        0.5387800716   -1.9733340837    1.9363120963
H        0.2106284706   -0.2804111160    0.2116467233
H        1.8982849227   -0.6235314105   -0.4752354120
15   
torsion grid (-30,)
C        2.2532169136   -4.2223543904    1.1977035449
C        2.5835318780   -2.7298094198    1.3837608278
C        3.2302487566   -2.4795203336    2.7675219587
C        1.3274962143   -1.9078997796    1.2244806132
C        1.1113700865   -0.9958511268    0.2705279798
H        1.8589336753   -4.4189011884    0.1956715665
H        1.4999826359   -4.5433038224    1.9267511247
H        3.1448243653   -4.8434296084    1.3444319448
H        3.2873326443   -2.4217116088    0.6017354293
H        2.8699474675   -3.2013760547    3.5092107949
H        4.3160215342   -2.6186226067    2.7101106073
H        3.0435704696   -1.4658501297    3.1326875849
H        0.5452050143   -2.0967027655    1.9640779038
H        0.1792127491   -0.4388334965    0.2129371672
H        1.8629904161   -0.7760656977   -0.4864098221
15   
torsion grid (-15,)
C        2.2342068203   -4.2464976696    1.2159596152
C        2.5838910641   -2.7564265694    1.3883629294
C        3.2472497064   -2.4959509657    2.7691377949
C        1.3417226690   -1.9162069044    1.2189790188
C        1.1412565708   -1.0106456909    0.2554580478
H        1.8195555144   -4.4437395365    0.2222069594
H        1.4917153928   -4.5572564041    1.9604979173
H        3.1227462510   -4.8746779216    1.3490988021
H        3.2865946389   -2.4724091504    0.5967902824
H        3.1023749658   -3.3423709165    3.4491192978
H        4.3291232389   -2.3645469271    2.6607743563
H        2.8565921862   -1.5943102289    3.2492328133
H        0.5556947420   -2.0849148017    1.9594232440
H        0.2179577053   -0.4398348573    0.1908790322
H        1.8975234484   -0.8101470196   -0.5021657433
15   
torsion grid (0,)
C        3.2932677483   -3.8467973861    0.9084058907
C        2.9405735080   -2.4621521843    1.4836136890
C        3.5430650751   -2.2721013679    2.9053338622
C        1.4456440538   -2.2617435390    1.4944297651
C        0.7822564942   -1.3251573759    0.8078547175
H        2.8981728616   -3.9664281907   -0.1055681355
H        2.8733566013   -4.6461687817    1.5310378231
H        4.3796132865   -3.9868529112    0.8740666714
H        3.3690619626   -1.7058250983    0.8159159366
H        4.1025921386   -3.1566743203    3.2273160028
H        4.2242276266   -1.4165528872    2.9381780472
H        2.7634744630   -2.0909885097    3.6520319516
H        0.8831051195   -2.9559112849    2.1238963441
H       -0.3003843280   -1.2378308693    0.8600992129
H        1.3031345318   -0.6125585408    0.1699616282
15   
torsion grid (15,)
C        3.2052422854   -3.8693276821    0.9242045665
C        2.8869020123   -2.4665972224    1.4745245156
C        3.4890136437   -2.2662769704    2.8907341458
C        1.4018261533   -2.2070346561    1.4730522238
C        0.7816998448   -1.2446673919    0.7816637908
H        2.7908087100   -4.0030924401   -0.0802368728
H        2.7835193649   -4.6504090553    1.5689895009
H        4.2882928516   -4.0265420606    0.8747616232
H        3.3494613566   -1.7399232761    0.7956894017
H        4.2345401174   -3.0340908763    3.1232294525
H        3.9482289592   -1.2798826618    2.9998940679
H        2.7135930632   -2.3480903493    3.6609504372
H        0.8073455046   -2.8775976672    2.0987493955
H       -0.2968831186   -1.1137162843    0.8260973183
H        1.3355110074   -0.5538062987    0.1476487005
15   
torsion grid (30,)
C        3.1200580198   -3.8901557867    0.9120862092
C        2.8438317137   -2.4680822720    1.4338272766
C        3.4370550850   -2.2668150202    2.8468241537
C        1.3694211445   -2.1550348142    1.4191784778
C        0.7905607822   -1.1711085755    0.7223507529
H        2.7039678932   -4.0303844465   -0.0907246250
H        2.6730043555   -4.6459255796    1.5699567510
H        4.1977729051   -4.0814727482    0.8684478371
H        3.3403104426   -1.7680224764    0.7500457489
H        4.3292098163   -2.8847971364    2.9959755822
H        3.6838907624   -1.2184567831    3.0365796230
H        2.7176797367   -2.5781118752    3.6142753893
H        0.7457642051   -2.8021030765    2.0412097287
H       -0.2827045505   -1.0000798307    0.7587228442
H        1.3741588004   -0.5022890956    0.0914118655
15   
torsion grid (45,)
C        3.0021891788   -3.9176107811    0.8929195064
C        2.7847856755   -2.4728425955    1.3783425446
C        3.3613548259   -2.2741108607    2.7934171234
C        1.3238599348   -2.1021393250    1.3404975881
C        0.7909631707   -1.1147918151    0.6125497938
H        2.6056020648   -4.0582656935   -0.1176090281
H        2.4993538502   -4.6342455343    1.5540243085
H        4.0692241427   -4.1660968499    0.8821559569
H        3.3206062695   -1.8043448997    0.6923532565
H        4.3575030786   -2.7227336058    2.8784713641
H        3.4229860277   -1.2134872404    3.0548488435
H        2.7261011666   -2.7653160063    3.5410255270
H        0.6689996543   -2.7076555702    1.9722155950
H       -0.2749847164   -0.9007460749    0.6333881189
H        1.4062197274   -0.4863673621   -0.0297851673
15   
torsion grid (60,)
C        3.0208349991   -3.9406401952    0.8978961581
C        2.8288622913   -2.4909401098    1.3796203830
C        3.4193038210   -2.3003073866    2.7887433040
C        1.3677528174   -2.1168250976    1.3611551025
C        0.8241427438   -1.1423213643    0.6239235183
H        2.6373767376   -4.0732032507   -0.1187179871
H        2.4894220164   -4.6422043827    1.5522618887
H        4.0813729327   -4.2170491933    0.9047781888
H        3.3592956013   -1.8229711482    0.6893122031
H        4.4926093143   -2.5217362942    2.7945375408
H        3.2815412117   -1.2720044929    3.1379554511
H        2.9342478743   -2.9689026413    3.5101023153
H        0.7225221698   -2.7092379125    2.0148567643
H       -0.2409033543   -0.9256460593    0.6591062712
H        1.4291442737   -0.5275813342   -0.0410535982
15   
torsion grid (75,)
C        2.8831567635   -3.9453611250    0.8838002057
C        2.7474948365   -2.4783060399    1.3318640871
C        3.3117504733   -2.2872879257    2.7545584657
C        1.3006491625   -2.0536825758    1.2731685135
C        0.8045691380   -1.0906185788    0.4889582059
H        2.5404067277   -4.0779318815   -0.1472503073
H        2.2839755119   -4.6020158448    1.5256540424
H        3.9253182636   -4.2798926594    0.9459240325
H        3.3156010690   -1.8426975150    0.6417935709
H        4.4073395737   -2.2981242885    2.7436065652
H        3.0041190452   -1.3219805806    3.1701641207
H        2.9604867333   -3.0737511515    3.4320453621
H        0.6236721020   -2.5976016542    1.9368737270
H       -0.2525788196   -0.8358708084    0.4959339720
H        1.4422974247   -0.5238221442   -0.1879642650
15   
torsion grid (90,)
C        2.8277259717   -4.0103032982    0.9114479067
C        2.7144542860   -2.5346792809    1.3382073547
C        3.2563726183   -2.3340098121    2.7743065155
C        1.2759679242   -2.0877766818    1.2426734192
C        0.8102083363   -1.1378751682    0.4245874483
H        2.5077353875   -4.1488870960   -0.1261483175
H        2.1978255653   -4.6436773053    1.5470963678
H        3.8600716916   -4.3677799156    1.0041097502
H        3.3037988420   -1.9198549939    0.6479804261
H        4.3267109875   -2.1024285613    2.7608042189
H        2.7639827992   -1.4870429858    3.2635738090
H        3.0941764483   -3.2207688700    3.3961370273
H        0.5783498051   -2.6031120708    1.9077914342
H       -0.2425122274   -0.8660404082    0.4051896452
H        1.4696224611   -0.5993275083   -0.2546209502
15   
torsion grid (105,)
C        2.7166778608   -3.9066621041    0.9612160986
C        2.6668291409   -2.4213863791    1.3664278187
C        3.2098321309   -2.2183800672    2.8080951578
C        1.2543572945   -1.9045629207    1.2434303397
C        0.8495406494   -0.9411470061    0.4088537282
H        2.3891978553   -4.0464454559   -0.0739678604
H        2.0626568912   -4.5049063490    1.6067154191
H        3.7337586924   -4.3041857453    1.0574679373
H        3.2904512004   -1.8517013944    0.6680996206
H        4.2119768035   -1.7782878142    2.7946484281
H        2.5773841441   -1.5300444908    3.3777749461
H        3.2555842281   -3.1617402063    3.3619154005
H        0.5217701272   -2.3773994285    1.9024414213
H       -0.1878568364   -0.6174790821    0.3698497894
H        1.5458031625   -0.4430435468   -0.2643660249
15   
torsion grid (120,)
C        2.5021069421   -3.7817924708    0.9785819278
C        2.5368733589   -2.2940581338    1.3758717662
C        3.0840448249   -2.1087830516    2.8204379838
C        1.1677780007   -1.6781557441    1.2292097406
C        0.8485938320   -0.6835490840    0.3940272339
H        2.1503239189   -3.9084836805   -0.0503785747
H        1.8301886430   -4.3455460075    1.6371279015
H        3.4997689981   -4.2279934170    1.0594078325
H        3.2059877855   -1.7786115248    0.6772954222
H        3.9868948583   -1.4906523260    2.8266554199
H        2.3522783959   -1.6204685282    3.4713879536
H        3.3417746153   -3.0695674267    3.2785678718
H        0.3909885171   -2.1015284671    1.8710038702
H       -0.1623415222   -0.2869373908    0.3376696108
H        1.5915367351   -0.2319278428   -0.2617906734
15   
torsion grid (135,)
C        2.4232173768   -3.7798983001    0.9915896286
C        2.4905908416   -2.2878767611    1.3673304037
C        3.0366781176   -2.0913303674    2.8069888844
C        1.1457320056   -1.6268087242    1.2011812055
C        0.8728313623   -0.6212590139    0.3626667490
H        2.0515394590   -3.9137504776   -0.0294714791
H        1.7541647283   -4.3263485774    1.6678573754
H        3.4152594400   -4.2395384510    1.0608750760
H        3.1832866275   -1.8070630154    0.6662609719
H        3.7825457633   -1.2916426576    2.8426444920
H        2.2399392825   -1.8476007875    3.5168647210
H        3.5307816321   -3.0004743415    3.1677222565
H        0.3460439323   -2.0235042356    1.8318265042
H       -0.1227106384   -0.1895375340    0.2920574522
H        1.6403395038   -0.1952317581   -0.2818501446
15   
torsion grid (150,)
C        2.3628404548   -3.7858062703    0.9931260876
C        2.4651849769   -2.2904499681    1.3461022825
C        3.0053338220   -2.0887716924    2.7805893419
C        1.1409142879   -1.5933311625    1.1652106117
C        0.9032632453   -0.5817484286    0.3231974923
H        1.9866606583   -3.9260278730   -0.0253700901
H        1.6822317804   -4.3074574412    1.6775278099
H        3.3441230066   -4.2669163507    1.0680167437
H        3.1789168696   -1.8381173640    0.6463102485
H        3.5631738556   -1.1510712763    2.8643597024
H        2.1990717467   -2.0854681055    3.5218664342
H        3.6981690502   -2.8946716450    3.0497155437
H        0.3247587227   -1.9664287067    1.7891224979
H       -0.0794924374   -0.1230620426    0.2439741939
H        1.6874339362   -0.1780534499   -0.3156447678
15   
torsion grid (165,)
C        2.2495600343   -3.7772186733    0.9702575803
C        2.4144733097   -2.2790550124    1.2846453050
C        2.9417407779   -2.0697607646    2.7175145633
C        1.1191221666   -1.5358410477    1.0775056972
C        0.9251207826   -0.5394577401    0.2066809362
H        1.8887225692   -3.9285811328   -0.0520786369
H        1.5300257062   -4.2454220542    1.6532829189
H        3.2043179893   -4.3032245802    1.0804553656
H        3.1545869463   -1.8692509790    0.5856074698
H        3.3083048677   -1.0479108845    2.8569139763
H        2.1609749084   -2.2636866464    3.4619963053
H        3.7757134251   -2.7503996646    2.9251714987
H        0.2860448662   -1.8593343476    1.7066998470
H       -0.0385170692   -0.0450578156    0.1093887888
H        1.7271580557   -0.1847302188   -0.4390529144
15   
torsion grid (180,)
C        2.2788671004   -3.8117150806    0.9821489233
C        2.4671449299   -2.3154058584    1.2920488229
C        3.0146585821   -2.1169392953    2.7173116813
C        1.1677062545   -1.5705024949    1.1142141537
C        0.9505666346   -0.5847625257    0.2368059581
H        1.9237885622   -3.9613192820   -0.0423761246
H        1.5447828547   -4.2611295668    1.6618276006
H        3.2219117977   -4.3569284345    1.1028865557
H        3.1948225178   -1.9033504050    0.5815337503
H        3.1508853470   -1.0548036600    2.9441116441
H        2.3232490706   -2.5317669913    3.4609139274
H        3.9785029377   -2.6238105985    2.8396716061
H        0.3523444733   -1.8842627868    1.7709818117
H       -0.0145168634   -0.0893686555    0.1612526220
H        1.7340325243   -0.2402627658   -0.4367072041
