22   
torsion grid (-165,)
C       -0.6616286465    0.6971672750   -1.6740811294
C        1.4855521878    0.7779295146   -0.3040450321
C       -1.3485045921   -0.3214300295   -0.7580543582
C        1.0105028928   -0.2528290222    0.7224676005
C        0.8760877984    0.5986436227   -1.7044989819
C        3.0724046637   -1.2136916498   -2.0878948166
O       -1.2505907121   -1.2730915020    1.7543913806
O       -1.0872900203    1.2529656459    1.3751808882
S        1.3128441849   -1.0055829273   -2.5216573121
S       -0.7844451531   -0.1296530958    0.9536523089
H       -1.0590874630    0.5707965259   -2.6872540917
H       -0.9344872906    1.7060617123   -1.3476599441
H        1.2202771522    1.7783781560    0.0554883553
H        2.5775130619    0.7462812045   -0.3554801124
H       -2.4298394021   -0.1647574645   -0.7196540091
H       -1.1435594236   -1.3556812704   -1.0407875340
H        1.2120633994   -1.2833124154    0.4211465156
H        1.4384352910   -0.0733212893    1.7122853370
H        1.2554258895    1.4012797456   -2.3438954389
H        3.4188685624   -2.0838471326   -2.6506508715
H        3.2162262967   -1.4104114855   -1.0228169104
H        3.6671785261   -0.3473872095   -2.3904411382
22   
torsion grid (-150,)
C       -0.6842689601    0.7120018342   -1.6670000176
C        1.4951342373    0.8393303169   -0.3495631338
C       -1.2998701636   -0.3619938474   -0.7678999705
C        1.0621499202   -0.2167577583    0.6721548405
C        0.8559554542    0.6976216362   -1.7412441178
C        2.9886478562   -1.2894859097   -1.9962782825
O       -1.1375555554   -1.3252103717    1.7356656287
O       -1.0769054025    1.2085228154    1.3765543979
S        1.3591069965   -0.8280423214   -2.6786336915
S       -0.7296652934   -0.1579188437    0.9377008086
H       -1.1004271376    0.5947488683   -2.6739683317
H       -1.0007218297    1.6970849514   -1.3075436090
H        1.2242261098    1.8260909355    0.0423290752
H        2.5860236069    0.8256696747   -0.4266897536
H       -2.3885822132   -0.2750254723   -0.7209231985
H       -1.0299779256   -1.3754638285   -1.0715031475
H        1.2835018891   -1.2404478919    0.3648974833
H        1.5052126998   -0.0349959755    1.6550093666
H        1.1731812369    1.5551718154   -2.3405578826
H        3.3073797083   -2.1551634248   -2.5823914802
H        2.9417970306   -1.5845179274   -0.9465977065
H        3.7296049385   -0.4967123666   -2.1277765720
22   
torsion grid (-135,)
C       -0.6883707196    0.7147213211   -1.6699426300
C        1.5024601898    0.9289218705   -0.3733996857
C       -1.2279203938   -0.4099025658   -0.7864070853
C        1.1201850690   -0.1326613007    0.6637953835
C        0.8488694609    0.7780344572   -1.7567726044
C        2.8618634183   -1.4075614574   -1.9385390325
O       -1.0109093627   -1.3750800053    1.7141651207
O       -1.1005154094    1.1599753224    1.3652158309
S        1.4369240920   -0.6547471762   -2.7995408124
S       -0.6730019319   -0.1816719039    0.9214668721
H       -1.1061987776    0.5931969256   -2.6751760287
H       -1.0548496088    1.6737363402   -1.2870781201
H        1.2052255896    1.9073792923    0.0205833167
H        2.5921112162    0.9520397464   -0.4657153611
H       -2.3200631179   -0.4050285234   -0.7390136039
H       -0.8841156419   -1.3966810438   -1.1053368867
H        1.4101018509   -1.1460741446    0.3868174695
H        1.5428652033    0.0972563765    1.6456984100
H        1.1116182066    1.6701203231   -2.3309227574
H        3.3022766732   -2.0846727562   -2.6749288990
H        2.5742040783   -1.9946445268   -1.0648848143
H        3.6211871188   -0.6721496624   -1.6643433764
22   
torsion grid (-120,)
C       -0.6782327891    0.7164781398   -1.6761735123
C        1.5152224503    1.0214070313   -0.3906633649
C       -1.1458899246   -0.4541033769   -0.8125794605
C        1.1884527126   -0.0507835547    0.6556341280
C        0.8531269198    0.8464201777   -1.7662245183
C        2.6939173917   -1.5060343938   -1.8836354425
O       -0.8575755354   -1.4540471438    1.6664134228
O       -1.1179124275    1.0759066827    1.3700248287
S        1.5358413699   -0.4946020948   -2.8715369537
S       -0.6002546677   -0.2239493909    0.8995802894
H       -1.0925882388    0.5935559239   -2.6816510021
H       -1.0891355691    1.6467859796   -1.2677543761
H        1.1839301698    1.9880113180    0.0049739707
H        2.6022761820    1.0880560796   -0.4991747249
H       -2.2357869931   -0.5202025412   -0.7584347784
H       -0.7447113735   -1.4121227234   -1.1534373140
H        1.5547043756   -1.0443935525    0.4013831114
H        1.5794377433    0.2229906248    1.6396207186
H        1.0684939642    1.7574333223   -2.3309577780
H        3.2783747496   -2.0604881146   -2.6222337961
H        2.1861117252   -2.2257683100   -1.2375018572
H        3.3861449681   -0.8960431744   -1.2999308852
22   
torsion grid (-105,)
C        0.0729266239    1.3878264094   -1.6066262851
C        1.5713415962    0.5060873195    0.2844529524
C       -0.9341862841    0.2455399308   -1.4828042451
C        0.6158626340   -0.6335235523    0.6637372365
C        1.4984327011    1.0072248294   -1.1690249764
C        2.3879926821   -1.7477605465   -1.8555929471
O       -1.9075892527   -1.4705449763    0.3435888557
O       -1.4877288057    0.9628535483    1.0217030086
S        2.3599236568   -0.0233304029   -2.4554132275
S       -1.1059024415   -0.2391328846    0.2548957404
H        0.0921780549    1.7265404847   -2.6463559534
H       -0.2742817629    2.2283470396   -0.9947704577
H        1.3416376412    1.3589363387    0.9326306155
H        2.5948990313    0.1981320144    0.5215002193
H       -1.9389779870    0.5425792330   -1.7953027248
H       -0.6376210598   -0.6454147196   -2.0424764755
H        0.8308506312   -1.5799077544    0.1706315042
H        0.6131253881   -0.8000420917    1.7447425093
H        2.0954463948    1.9233629257   -1.2045840376
H        3.0155422352   -2.2786870806   -2.5762408123
H        1.4019132407   -2.2187124753   -1.8491514333
H        2.8581622856   -1.8358666806   -0.8737983607
22   
torsion grid (-90,)
C        0.1125640352    1.3374862687   -1.6260199290
C        1.5730628719    0.5788834953    0.3479500170
C       -0.8738366676    0.1776588628   -1.4903770555
C        0.6530318092   -0.5912257495    0.7217863921
C        1.5356351596    1.0295521817   -1.1249302929
C        2.2653500476   -1.7376091494   -1.9339536182
O       -1.8247445822   -1.5376108773    0.3468700187
O       -1.5228914422    0.9262294497    0.9793657601
S        2.5402614483    0.0282129664   -2.3166787669
S       -1.0703753123   -0.2766112624    0.2535731310
H        0.1578161348    1.6369355642   -2.6766660529
H       -0.2803198699    2.1895610398   -1.0590846951
H        1.2828204001    1.4373338028    0.9638141101
H        2.5989780109    0.3176705493    0.6263104137
H       -1.8783883488    0.4541815466   -1.8225260376
H       -0.5628074632   -0.7203672301   -2.0279064632
H        0.9224725297   -1.5371893779    0.2553403648
H        0.6220342344   -0.7369538128    1.8053976663
H        2.0909040719    1.9722842924   -1.1696360304
H        2.8363482816   -2.2759126071   -2.6951802276
H        1.2203266697   -2.0439014373   -2.0154189520
H        2.6657051847   -2.0141016071   -0.9562890469
22   
torsion grid (-75,)
C        0.1555859276    1.2633507109   -1.6511968959
C        1.5539707003    0.6447343824    0.4165257298
C       -0.8405076291    0.1159081426   -1.4671667416
C        0.6709150746   -0.5521089929    0.7864565442
C        1.5663020474    1.0252698566   -1.0768599691
C        2.1964460407   -1.7232989825   -2.0575944974
O       -1.7917545956   -1.5454400004    0.4142117686
O       -1.5258888204    0.9420218381    0.9683001914
S        2.7008850002    0.0327968221   -2.1478702431
S       -1.0507491821   -0.2794214192    0.2893903829
H        0.2350013064    1.4885830271   -2.7184097685
H       -0.2637659505    2.1499988753   -1.1616356910
H        1.1954901741    1.5105909930    0.9845977729
H        2.5763966369    0.4399451464    0.7475655008
H       -1.8406788834    0.3946434647   -1.8109275290
H       -0.5486127759   -0.8080938502   -1.9668954475
H        0.9777730138   -1.4900874843    0.3247480028
H        0.6268113460   -0.6962704646    1.8698034288
H        2.0871545418    1.9868874921   -1.1433329590
H        2.8280654846   -2.2278444608   -2.7936554337
H        1.1559895824   -1.8900876994   -2.3390277786
H        2.3991181634   -2.1675704884   -1.0812856621
22   
torsion grid (-60,)
C        0.1978961474    1.1894137132   -1.6590175692
C        1.5458871960    0.7011820325    0.4794157891
C       -0.7812209112    0.0320809563   -1.4320288851
C        0.6926112946   -0.5037411607    0.8832156279
C        1.5926980460    1.0086510664   -1.0300915852
C        2.0900570898   -1.6749010329   -2.2320474301
O       -1.7427719384   -1.5642284815    0.4958831965
O       -1.5366614503    0.9487599478    0.9512635170
S        2.7927080354   -0.0006290956   -2.0092296352
S       -1.0225069069   -0.2902862327    0.3355664166
H        0.3027768041    1.3533968792   -2.7355493327
H       -0.2517583337    2.0939490189   -1.2342422855
H        1.1429393691    1.5821231378    0.9924089516
H        2.5641526366    0.5478030813    0.8474528575
H       -1.7795793028    0.2734506690   -1.8080908393
H       -0.4635034584   -0.9115549438   -1.8746026125
H        1.0416479275   -1.4507932541    0.4705847458
H        0.6269706227   -0.6026739486    1.9704793283
H        2.0940132988    1.9786374912   -1.1229726722
H        2.8890808848   -2.2472341715   -2.7108900624
H        1.2267373913   -1.6803523987   -2.9001711062
H        1.8417727609   -2.1685463649   -1.2915957092
22   
torsion grid (-45,)
C        0.2479720943    1.1192865596   -1.6738269933
C        1.5254481115    0.7631485104    0.5284179937
C       -0.7428291247   -0.0229566515   -1.4122015868
C        0.7124451038   -0.4660615723    0.9348274200
C        1.6233593842    0.9935014660   -0.9909625125
C        2.0088614912   -1.6371168461   -2.3247010188
O       -1.6973910517   -1.5882035728    0.5412662559
O       -1.5476930506    0.9377368357    0.9397544885
S        2.8617175348   -0.0973553169   -1.8320749125
S       -0.9995589732   -0.3043135148    0.3607950850
H        0.3829501445    1.2231900710   -2.7550783280
H       -0.2148986357    2.0463558575   -1.3177056794
H        1.0632909583    1.6457517713    0.9857396963
H        2.5325559932    0.6689332921    0.9436557901
H       -1.7364663495    0.2205377057   -1.7992317875
H       -0.4376372655   -0.9820557813   -1.8270918762
H        1.1057098248   -1.3996689181    0.5278846166
H        0.6342973364   -0.5632934274    2.0212810780
H        2.1194036482    1.9604736423   -1.1255623843
H        2.7956458035   -2.2608292759   -2.7573974930
H        1.2567145709   -1.4622300448   -3.0968183658
H        1.5700496546   -2.1803238812   -1.4852287805
22   
torsion grid (-30,)
C        0.2842173583    1.0402583224   -1.6775983992
C        1.5042874658    0.8053106342    0.5692106915
C       -0.7186856250   -0.0830330081   -1.3802206518
C        0.7035817060   -0.4237825852    0.9960683443
C        1.6422299247    0.9608714165   -0.9560256927
C        1.9833826098   -1.5944352038   -2.4406173562
O       -1.7029486829   -1.5618517400    0.6245897500
O       -1.5587625040    0.9786218125    0.9142487542
S        2.8949079576   -0.2168433595   -1.6623404775
S       -1.0017876982   -0.2872501188    0.3988030290
H        0.4414085826    1.0900544943   -2.7600028070
H       -0.1838014660    1.9861719912   -1.3834532128
H        1.0146788239    1.6983985823    0.9744315956
H        2.5001069285    0.7468847225    1.0175191153
H       -1.7041351196    0.1527869715   -1.7920189924
H       -0.4171864297   -1.0616080142   -1.7492973197
H        1.1135504372   -1.3577438955    0.6034324966
H        0.6170265818   -0.5044648232    2.0830485659
H        2.1397437832    1.9189386996   -1.1339599953
H        2.7577186017   -2.1976747014   -2.9218478091
H        1.2975154903   -1.2488133565   -3.2170601562
H        1.4568984773   -2.2262899319   -1.7211687670
22   
torsion grid (-15,)
C        0.3041110964    0.9749988169   -1.6669945262
C        1.4902674360    0.8353197752    0.5985917015
C       -0.6991337013   -0.1390240716   -1.3433220838
C        0.6775503520   -0.3697263007    1.0695635527
C        1.6520218747    0.9121399602   -0.9303119793
C        1.9869383874   -1.5589708700   -2.5735656207
O       -1.7226621196   -1.5267002288    0.7055689784
O       -1.5872483602    1.0239633470    0.8838299640
S        2.8783106859   -0.3659164017   -1.5153624321
S       -1.0174356417   -0.2624738085    0.4375821912
H        0.4662480988    0.9983406821   -2.7493517778
H       -0.1620404720    1.9305859802   -1.4021795331
H        1.0021085286    1.7515122270    0.9501855994
H        2.4781844062    0.7938388550    1.0671926468
H       -1.6767681097    0.0687163460   -1.7873906019
H       -0.3798405183   -1.1306797207   -1.6597232041
H        1.0936539598   -1.3187919352    0.7212273559
H        0.5751951145   -0.4018164828    2.1575568996
H        2.1693037159    1.8491279336   -1.1540380150
H        2.7753407886   -2.1141405139   -3.0882665252
H        1.3754111443   -1.0661214360   -3.3321181440
H        1.3844305369   -2.2696752446   -2.0029337409
22   
torsion grid (0,)
C        0.2988608291    0.8985012656   -1.6539325017
C        1.4845059528    0.8414572677    0.6164261318
C       -0.6990609116   -0.2063360014   -1.2897795250
C        0.6429508323   -0.3192572993    1.1467878925
C        1.6439480543    0.8473977574   -0.9146827017
C        2.0326373811   -1.4957718837   -2.7246767194
O       -1.7738218957   -1.4529168769    0.8257279435
O       -1.5945639246    1.1016187759    0.8512537818
S        2.8281857650   -0.5116140460   -1.4058490271
S       -1.0429971610   -0.2196757117    0.4910165091
H        0.4568905026    0.8906304007   -2.7362679111
H       -0.1640892921    1.8627329914   -1.4158805785
H        1.0230506303    1.7861996909    0.9250013529
H        2.4723585311    0.7971240592    1.0864354203
H       -1.6708858385   -0.0411107172   -1.7630999045
H       -0.3562966822   -1.2104678340   -1.5380437675
H        1.0430231427   -1.2934830745    0.8549060603
H        0.5307109741   -0.2862731011    2.2337011645
H        2.1775906217    1.7637702731   -1.1806282167
H        2.8489673494   -2.0613793122   -3.1809802451
H        1.5852442781   -0.8711833067   -3.5003177459
H        1.2967380644   -2.2054564083   -2.3413767071
22   
torsion grid (15,)
C        0.2759691134    0.7956708345   -1.6479616145
C        1.4818049517    0.8316612610    0.6216705018
C       -0.7163600346   -0.2906452092   -1.2172761415
C        0.6156239618   -0.2773426358    1.2210966497
C        1.6222880892    0.7684945007   -0.9096145345
C        2.1041905970   -1.3720358040   -2.8796343700
O       -1.8264229513   -1.3720644873    0.9716232314
O       -1.5887895864    1.1734298296    0.8327998929
S        2.7587346541   -0.6453179480   -1.3373975000
S       -1.0674226004   -0.1805769099    0.5588556399
H        0.4297192928    0.7266698202   -2.7282348536
H       -0.1850408049    1.7713612003   -1.4585863413
H        1.0504090091    1.8021264502    0.8896921608
H        2.4743987087    0.7846631011    1.0824560817
H       -1.6859529416   -0.1742300687   -1.7090698338
H       -0.3554740621   -1.3066535189   -1.3843253402
H        0.9906260058   -1.2769580418    0.9900287920
H        0.5055561578   -0.1726501717    2.3036645978
H        2.1620507127    1.6684412337   -1.2180788013
H        2.8173557691   -2.1579596912   -3.1413387797
H        2.0784923501   -0.6510419383   -3.7004045473
H        1.1221908114   -1.8305348978   -2.7542241847
22   
torsion grid (30,)
C        0.2550581279    0.7365192096   -1.6353495686
C        1.4868020237    0.8273026629    0.6109759224
C       -0.7318131767   -0.3401452962   -1.1748482900
C        0.5993126960   -0.2324425136    1.2706951342
C        1.6113452263    0.6905386387   -0.9171721940
C        2.1522384691   -1.2956561192   -2.9657246730
O       -1.8414937634   -1.3383403697    1.0555415233
O       -1.6037113965    1.1991771941    0.8179337743
S        2.6323801726   -0.8203098139   -1.2704819641
S       -1.0818796794   -0.1643637618    0.5967134985
H        0.3906176811    0.6554378576   -2.7170738818
H       -0.1916054022    1.7193755793   -1.4485856523
H        1.0809669913    1.8192322874    0.8356557316
H        2.4818418472    0.7779425866    1.0667600815
H       -1.7029642111   -0.2464824640   -1.6681400342
H       -0.3566754931   -1.3570614317   -1.3090446950
H        0.9614482174   -1.2495591737    1.1081617605
H        0.4835083773   -0.0559218854    2.3433626972
H        2.1941874564    1.5446624961   -1.2751700088
H        2.7931526030   -2.1428362695   -3.2222167218
H        2.3399041262   -0.4933756881   -3.6843462842
H        1.1113263101   -1.6191868167   -3.0319054504
22   
torsion grid (45,)
C        0.2068015818    0.6739711694   -1.6265338173
C        1.4894815963    0.8058409735    0.5820581202
C       -0.7954607977   -0.3654945308   -1.1195737894
C        0.5854308524   -0.2015755293    1.3013706264
C        1.5799879237    0.5984489468   -0.9408934701
C        2.2630603340   -1.2273535718   -3.0320464613
O       -1.8795365344   -1.2645817926    1.1704621789
O       -1.5947225559    1.2572032258    0.8348128573
S        2.4914754742   -0.9845536425   -1.2390184977
S       -1.1061750570   -0.1246180696    0.6522680118
H        0.3137646681    0.5630664286   -2.7091420092
H       -0.2060064947    1.6741383805   -1.4540321650
H        1.1120061669    1.8161254699    0.7703551085
H        2.4910006738    0.7488621546    1.0219358866
H       -1.7737533846   -0.2614922056   -1.5962523349
H       -0.4412176787   -1.3924810719   -1.2359851114
H        0.9182191105   -1.2346751670    1.1827880202
H        0.4906487683    0.0265711154    2.3663899781
H        2.2014562839    1.4014778936   -1.3496959117
H        2.9094379314   -2.0631949640   -3.3101035416
H        2.5757472957   -0.3448838509   -3.5974381041
H        1.2323010454   -1.4862944535   -3.2859848689
22   
torsion grid (60,)
C        0.1266049466    0.6065441383   -1.6232955136
C        1.4882148016    0.7658743372    0.5348643646
C       -0.8946816307   -0.3758409200   -1.0459136554
C        0.5785298690   -0.1884328538    1.3172448428
C        1.5210233517    0.5027204118   -0.9815908109
C        2.4286939242   -1.1521527228   -3.0858850311
O       -1.9300843325   -1.1557205966    1.3093654318
O       -1.5569158376    1.3398693886    0.8805756738
S        2.3477678897   -1.1246664828   -1.2637775044
S       -1.1319039591   -0.0660360745    0.7255485323
H        0.1942948075    0.4461313341   -2.7034763694
H       -0.2448149328    1.6274569170   -1.4799196513
H        1.1430876534    1.7915317566    0.7005805631
H        2.5018993764    0.6932510711    0.9419477805
H       -1.8850845144   -0.2499894371   -1.4913043333
H       -0.5810170892   -1.4178088024   -1.1433426723
H        0.8692826070   -1.2370053553    1.2221142861
H        0.5307755577    0.0741993301    2.3775185485
H        2.1636605936    1.2626055123   -1.4381967451
H        3.0719733663   -1.9922088626   -3.3575814881
H        2.8762456423   -0.2309571268   -3.4701324698
H        1.4463951125   -1.3048580537   -3.5396030730
22   
torsion grid (75,)
C        0.0274134214    0.5593084674   -1.6250967137
C        1.4813520757    0.7346739059    0.4694916126
C       -0.9986388358   -0.3725880487   -0.9763815104
C        0.5875231387   -0.1819731045    1.3120554981
C        1.4448733603    0.4291606549   -1.0384866681
C        2.6073674788   -1.0900031065   -3.0979477195
O       -1.9416338959   -1.0865787356    1.4369353468
O       -1.5280238907    1.3923413152    0.9490329146
S        2.1938421889   -1.2354483223   -1.3271709173
S       -1.1456759999   -0.0263094825    0.7977184817
H        0.0474568878    0.3535822669   -2.7002311802
H       -0.3081868052    1.5957687012   -1.5060569369
H        1.1596484985    1.7700296983    0.6229403404
H        2.5095920791    0.6512709477    0.8343097386
H       -2.0037262795   -0.2205995490   -1.3786599870
H       -0.7259428422   -1.4261988573   -1.0704813424
H        0.8485939367   -1.2396552390    1.2258954933
H        0.5961981448    0.1002471801    2.3683300617
H        2.0964478347    1.1512690861   -1.5407480082
H        3.1337734148   -2.0060740055   -3.3755456997
H        3.2684131901   -0.2367687842   -3.2737452422
H        1.7132801022   -1.0009480800   -3.7204168568
22   
torsion grid (90,)
C       -0.0824167996    0.5317697420   -1.6275187365
C        1.4770577173    0.7008123879    0.3911673246
C       -1.0979247122   -0.3643833551   -0.9145562741
C        0.6062861695   -0.1855825404    1.2871321558
C        1.3581682653    0.3728404553   -1.1073623492
C        2.7787248797   -1.0411104157   -3.0714636970
O       -1.9328722058   -1.0246135854    1.5541993176
O       -1.4875488251    1.4365919376    1.0098850241
S        2.0337293257   -1.3215752874   -1.4291510782
S       -1.1465312593    0.0074294243    0.8596335490
H       -0.1148715560    0.3014479851   -2.6976237347
H       -0.3887855291    1.5776635082   -1.5116243589
H        1.1854256057    1.7449837944    0.5469432565
H        2.5196664860    0.5960918813    0.7052653143
H       -2.1177744360   -0.1914687726   -1.2683174624
H       -0.8586240837   -1.4261031564   -1.0106052114
H        0.8395229794   -1.2499686690    1.1979811312
H        0.6753079840    0.1032116785    2.3393906075
H        2.0052940883    1.0653331628   -1.6535077542
H        3.2072151453   -1.9930279827   -3.3935489065
H        3.5756984903   -0.2948245980   -3.0158890534
H        2.0291994734   -0.7310106860   -3.8046883585
22   
torsion grid (105,)
C       -0.1949957537    0.5350285111   -1.6295596427
C        1.4753379198    0.6673757057    0.3010787947
C       -1.1889486163   -0.3418472349   -0.8640089135
C        0.6359086930   -0.2001744623    1.2432558980
C        1.2663413411    0.3388754094   -1.1876461961
C        2.9300308150   -1.0195812225   -3.0080299381
O       -1.9014180558   -0.9908652828    1.6450982347
O       -1.4391319994    1.4624576142    1.0802017250
S        1.8698352359   -1.3756541974   -1.5647117383
S       -1.1334985896    0.0274756115    0.9109015944
H       -0.2880209174    0.3083346188   -2.6964814446
H       -0.4717071559    1.5863448048   -1.4906574683
H        1.2166379196    1.7182743883    0.4714940185
H        2.5307550026    0.5377720731    0.5579909650
H       -2.2228042905   -0.1475796718   -1.1616402810
H       -0.9799665302   -1.4088869784   -0.9749920842
H        0.8450672910   -1.2684288323    1.1404643915
H        0.7670215231    0.0857508961    2.2903538555
H        1.8982130717    1.0124235433   -1.7726446187
H        3.3386079557   -1.9754267678   -3.3444070321
H        3.7568092288   -0.3588325008   -2.7345712871
H        2.3538731148   -0.5783291167   -3.8257481270
22   
torsion grid (120,)
C       -0.3038839001    0.5492708885   -1.6354946148
C        1.4767712927    0.6378312841    0.1998207043
C       -1.2674784526   -0.3191573475   -0.8220378675
C        0.6763889206   -0.2223063182    1.1812427642
C        1.1750583816    0.3242979548   -1.2759831697
C        3.0513031223   -1.0069995824   -2.9054769369
O       -1.8467274181   -0.9769923153    1.7187833863
O       -1.3782238556    1.4734381198    1.1459733833
S        1.7145707508   -1.3959637542   -1.7237255078
S       -1.1047813193    0.0352788802    0.9502513638
H       -0.4576570868    0.3356632225   -2.6974474715
H       -0.5545674384    1.6026218713   -1.4672263690
H        1.2519450243    1.6928311340    0.3930481472
H        2.5424574971    0.4841976403    0.3951843632
H       -2.3133871084   -0.1060931434   -1.0586431956
H       -1.0861676184   -1.3895034985   -0.9517338347
H        0.8637059206   -1.2919677835    1.0555256493
H        0.8695381582    0.0523115465    2.2216909281
H        1.7785912383    0.9924003390   -1.8959743800
H        3.4623346457   -1.9615521582   -3.2426564036
H        3.8479614351   -0.4312985081   -2.4269460043
H        2.6661950136   -0.4638015630   -3.7724342287
22   
torsion grid (135,)
C       -0.4037932366    0.5686381499   -1.6449893250
C        1.4812839561    0.6174491224    0.0894167707
C       -1.3278034000   -0.3027993334   -0.7888919181
C        0.7268950801   -0.2460532476    1.1035328961
C        1.0905176980    0.3295727678   -1.3706092224
C        3.1337373521   -1.0034891414   -2.7664421875
O       -1.7698832268   -0.9823575080    1.7734999427
O       -1.3094092529    1.4693563169    1.1998858107
S        1.5757037948   -1.3825069730   -1.8936965564
S       -1.0613085054    0.0308495549    0.9753392352
H       -0.6164575881    0.3718991641   -2.6996769891
H       -0.6354513706    1.6208299961   -1.4469268195
H        1.2872858867    1.6734186336    0.3094344648
H        2.5543906635    0.4461498812    0.2223346366
H       -2.3834003176   -0.0777813558   -0.9635124523
H       -1.1664426031   -1.3738998464   -0.9381493374
H        0.8958796602   -1.3149269956    0.9510024589
H        0.9799793521    0.0133612554    2.1349460441
H        1.6567608324    1.0058908770   -2.0172663254
H        3.5445454996   -1.9555155542   -3.1107170886
H        3.8598762095   -0.5307042507   -2.0995840339
H        2.9510407192   -0.3628746044   -3.6331892988
22   
torsion grid (150,)
C       -0.4900732039    0.5965991104   -1.6539641465
C        1.4853068910    0.6183530132   -0.0228633545
C       -1.3657729050   -0.2927664970   -0.7651132058
C        0.7866656334   -0.2647306927    1.0140450911
C        1.0183116480    0.3618680537   -1.4666523771
C        3.1750953527   -1.0245427246   -2.6045619861
O       -1.6705988943   -1.0152501062    1.8055390368
O       -1.2426854084    1.4463529784    1.2481297132
S        1.4596511701   -1.3327838306   -2.0644126822
S       -1.0058453409    0.0119243426    0.9875505191
H       -0.7594085535    0.4207739796   -2.6994849829
H       -0.7130289847    1.6438612328   -1.4240672749
H        1.3050870203    1.6702223818    0.2265166642
H        2.5644892991    0.4495164843    0.0530321056
H       -2.4291673453   -0.0658619759   -0.8798350893
H       -1.2122885999   -1.3611631460   -0.9384366474
H        0.9456593214   -1.3299580022    0.8306901579
H        1.0950488404   -0.0237286025    2.0348038997
H        1.5436244944    1.0582451914   -2.1277065928
H        3.5610756788   -1.9703144384   -2.9917833059
H        3.8091558060   -0.7046400204   -1.7732997319
H        3.2036452835   -0.2774698229   -3.4023851048
22   
torsion grid (165,)
C       -0.5625523316    0.6263144522   -1.6634975357
C        1.4839307882    0.6549623487   -0.1296683205
C       -1.3807271717   -0.2956712297   -0.7521277031
C        0.8566467624   -0.2680619143    0.9174120555
C        0.9588324533    0.4212805193   -1.5574276598
C        3.1795679178   -1.0755257627   -2.4272852709
O       -1.5422585196   -1.0805170280    1.8152257789
O       -1.1880696864    1.3998625685    1.2902537634
S        1.3753212498   -1.2506204576   -2.2236686726
S       -0.9391757622   -0.0240564843    0.9868502202
H       -0.8820834482    0.4683550335   -2.6982038288
H       -0.7918535736    1.6648463706   -1.4033682989
H        1.2853595973    1.6958725744    0.1495898526
H        2.5699871888    0.5218510436   -0.1023898973
H       -2.4508338254   -0.0788559343   -0.8097732482
H       -1.2219549867   -1.3573712518   -0.9556636087
H        1.0220580223   -1.3253505706    0.6977758407
H        1.2120122344   -0.0468701624    1.9273190835
H        1.4388288315    1.1460141186   -2.2231418836
H        3.5263496197   -1.9741803962   -2.9425476805
H        3.6963932846   -1.0041571028   -1.4669724092
H        3.4181685586   -0.2036138258   -3.0429498714
22   
torsion grid (180,)
C       -0.6210014044    0.6601379528   -1.6721157906
C        1.4833001644    0.7070877481   -0.2261799730
C       -1.3750988577   -0.3035369279   -0.7487417820
C        0.9343952166   -0.2698644668    0.8157400642
C        0.9104430059    0.5007871906   -1.6390741612
C        3.1430795879   -1.1380348620   -2.2482872443
O       -1.4046160965   -1.1633320034    1.7975581337
O       -1.1236030886    1.3379891340    1.3330772407
S        1.3236341378   -1.1417827579   -2.3777789329
S       -0.8616109145   -0.0706870862    0.9748997983
H       -0.9834912035    0.5154496567   -2.6952634796
H       -0.8676364371    1.6868925285   -1.3832064355
H        1.2519216910    1.7295776318    0.0926925655
H        2.5740156802    0.6245132022   -0.2434443085
H       -2.4510615804   -0.1093525876   -0.7521634602
H       -1.2004951671   -1.3546764422   -0.9880039309
H        1.1120580844   -1.3152456870    0.5526135631
H        1.3317988011   -0.0722804510    1.8147975501
H        1.3423997714    1.2618224974   -2.2968382059
H        3.4979919858   -1.9882629609   -2.8352613644
H        3.4830087767   -1.2607328841   -1.2170501355
H        3.5645150500   -0.2219615166   -2.6722290055
