24   
torsion grid (-165,)
C       -1.0999133880   -1.0074436965    1.1908758820
N       -0.0194877569   -0.2841926109    1.9165320964
C        0.6616531318    0.6688642454    0.9529744928
C        1.0248610843   -1.2455689200    2.4163432495
C       -0.6285884519    0.4171785915    3.1585891126
C       -1.0169223274    1.8896556876    2.9740936169
O        0.0403240128    2.7637632168    2.7873400923
P        1.4564857777    2.5412216634    3.9237034775
O        2.2127547879    3.8304138370    3.7226948177
O        2.1242551463    1.2773111547    3.2868970572
O        0.7371196699    2.2154114739    5.2319448011
H       -1.5292571994   -1.7720427746    1.8417535420
H       -1.8722246729   -0.2893754991    0.9078122624
H       -0.6871723147   -1.4763118886    0.2945472202
H        1.4627875165    1.1606206103    1.5275066714
H        1.0345833063    0.0573626036    0.1241863962
H       -0.0669586768    1.3959875443    0.6005376065
H        1.7725804636   -0.6101316975    2.9186789943
H        0.5479598623   -1.9400303239    3.1126739380
H        1.4380729566   -1.7913065503    1.5623654626
H       -1.5082921149   -0.1816316385    3.4219387457
H        0.1134441741    0.3750199324    3.9545927148
H       -1.7320791064    1.9895621709    2.1329738225
H       -1.5787804793    2.1123035658    3.9001434234
24   
torsion grid (-150,)
C       -1.0305044522   -1.0306122166    1.2823822617
N        0.0339947797   -0.2354869971    1.9544098330
C        0.6617032544    0.6966212186    0.9364181322
C        1.1262259075   -1.1372784937    2.4705398866
C       -0.5784940869    0.4942038971    3.1798914920
C       -0.8775569446    1.9917938849    3.0084314983
O        0.2400686088    2.7796590700    2.7966982038
P        1.6566914776    2.4930225550    3.9207694494
O        2.3014169536    3.8539073086    3.9812711022
O        2.4011521593    1.3943009540    3.1018099667
O        0.9566867670    1.9178075555    5.1596657639
H       -1.4266693444   -1.7718624763    1.9795662826
H       -1.8294628597   -0.3543939549    0.9705323419
H       -0.6133832842   -1.5350459861    0.4075051455
H        1.4781458568    1.2233886291    1.4557727652
H        1.0191921803    0.0638665982    0.1168237556
H       -0.0965582064    1.3921014021    0.5809153563
H        1.8764930008   -0.4527604934    2.9097870703
H        0.6925377518   -1.8070134936    3.2171239127
H        1.5273704014   -1.7139969356    1.6308692902
H       -1.4923237111   -0.0588566868    3.4238089610
H        0.1346226417    0.4318069138    4.0072064244
H       -1.5999951196    2.1492644520    2.1834200569
H       -1.4011173266    2.2434807473    3.9489958401
24   
torsion grid (-135,)
C       -0.9841365384   -1.1498749779    1.4013855619
N        0.0244015496   -0.2132674046    1.9695155416
C        0.5655156599    0.6549943766    0.8508235325
C        1.1913993210   -0.9893310491    2.5369820975
C       -0.6362863936    0.5810956015    3.1337880371
C       -0.7918671108    2.1010080529    2.9406825256
O        0.3839623626    2.7734007695    2.6751459020
P        1.8493584490    2.4539111089    3.7282233238
O        2.3774335857    3.8382807509    4.0014699040
O        2.6358807214    1.5482834665    2.7414273572
O        1.2393010073    1.6558361542    4.8961852010
H       -1.3349426786   -1.8238553444    2.1856178453
H       -1.8236333841   -0.5713702230    1.0088872450
H       -0.5294650709   -1.7309274646    0.5954512505
H        1.4000583918    1.2404920969    1.2656756134
H        0.8963092988   -0.0270259091    0.0601898391
H       -0.2353719251    1.2974915531    0.4866344390
H        1.9323417573   -0.2332356459    2.8645761448
H        0.8237722038   -1.5998043811    3.3642786541
H        1.5937688287   -1.6246359748    1.7411098058
H       -1.6110199898    0.1131390951    3.3068071684
H        0.0261702283    0.4841500930    4.0041987770
H       -1.5198872893    2.3159572778    2.1347705711
H       -1.2669643498    2.4127581410    3.8911490550
24   
torsion grid (-120,)
C       -0.9195767753   -1.1857204645    1.4385229126
N        0.0687685626   -0.2221206379    1.9989633835
C        0.6144892173    0.6261418398    0.8660886598
C        1.2406903599   -0.9872082951    2.5784569457
C       -0.6342394001    0.5773303285    3.1398198134
C       -0.6281011933    2.1165373280    3.0091400265
O        0.6037717382    2.6535195382    2.7120098027
P        2.0542219957    2.2625030692    3.7615474607
O        2.4981368483    3.6093275357    4.2727458606
O        2.8880899206    1.5401798776    2.6774991107
O        1.4482050108    1.2805414954    4.7883504055
H       -1.2858829352   -1.8327735339    2.2380982389
H       -1.7526177984   -0.6297097272    1.0022067968
H       -0.4392316924   -1.7929275470    0.6676604979
H        1.4791888443    1.1850689855    1.2495352892
H        0.9000033633   -0.0684168594    0.0686480592
H       -0.1708059696    1.2972531246    0.5188301004
H        1.9901913616   -0.2482503837    2.9047577965
H        0.8755019094   -1.5903883079    3.4112681750
H        1.6382994877   -1.6265334831    1.7834541262
H       -1.6610385997    0.1999291838    3.1911962822
H       -0.0537563509    0.3695023000    4.0447939896
H       -1.3517308212    2.4327216053    2.2334911832
H       -1.0380043025    2.4487180760    3.9830954019
24   
torsion grid (-105,)
C       -0.8598102622   -1.3377820248    1.3616908047
N        0.0581608427   -0.3102431840    1.9296541417
C        0.5853335588    0.5393807667    0.7822805144
C        1.2529070228   -0.9922394742    2.5587842505
C       -0.7098198362    0.4637481794    3.0461939143
C       -0.8737849115    1.9897082470    2.8456486022
O        0.2618989348    2.6387325251    2.4266804066
P        1.8359831637    2.5385020739    3.3594478039
O        1.9436108391    3.8800302317    4.0408849927
O        2.7384104625    2.1834062124    2.1688918698
O        1.5705082281    1.3223250918    4.2883762150
H       -1.2295819369   -1.9797020326    2.1637716983
H       -1.6985374335   -0.8348593833    0.8747726659
H       -0.3185716730   -1.9423494645    0.6301810682
H        1.4305809786    1.1554706187    1.1373553781
H        0.8971781342   -0.1691356338    0.0061043583
H       -0.2192673605    1.1741494933    0.4145761237
H        1.8061357630   -0.2154445622    3.1152502155
H        0.8799623278   -1.7558972544    3.2468337396
H        1.8411216454   -1.4512773239    1.7599601923
H       -1.6908603060   -0.0159997556    3.1308965559
H       -0.1039472289    0.3430654060    3.9440268735
H       -1.6805739778    2.1775718089    2.1112162906
H       -1.2552071624    2.3336472221    3.8283601831
24   
torsion grid (-90,)
C       -0.7619369870   -1.0214013904    0.8409325532
N        0.0672713946   -0.2910805347    1.8410528592
C        0.8453195553    0.7893873875    1.1020998997
C        1.0837466923   -1.2155880908    2.4592832045
C       -0.8637045858    0.2034476242    2.9855016944
C       -1.2553353251    1.6918569219    2.9454096010
O       -0.1945735943    2.5599975373    2.8487761561
P        1.2693266949    2.4943675225    3.9754850815
O        0.8773520535    3.4045425979    5.1154527585
O        2.3175657257    2.9087480773    2.9477388834
O        1.3395604580    0.9764114300    4.3210280165
H       -1.2510046322   -1.8709199416    1.3217582064
H       -1.5157321824   -0.3374466090    0.4452692871
H       -0.1254014044   -1.3767145434    0.0273088012
H        1.5336871989    1.3181797945    1.7732105276
H        1.3832913576    0.2674411602    0.3022311580
H        0.1455462359    1.5124866568    0.6900426295
H        1.6161984050   -0.5971333726    3.2026940215
H        0.5525243890   -2.0424917628    2.9380764745
H        1.7370967211   -1.5937750164    1.6675562514
H       -1.7510975818   -0.4388880915    2.9429125406
H       -0.2839177442    0.0691643878    3.8997521724
H       -1.9485776340    1.8739721474    2.0992311996
H       -1.8584838218    1.8191956265    3.8697389696
24   
torsion grid (-75,)
C       -0.7005917955   -0.5501073902    0.6548242307
N        0.1423669047   -0.4278254761    1.8764054577
C        1.2008718643    0.6358559730    1.6229006411
C        0.8734621965   -1.7112804631    2.1552022107
C       -0.7814798339   -0.1640291010    3.0944986170
C       -1.0341021306    1.3119463574    3.4295751597
O        0.0951711558    2.0481373734    3.7093442580
P        1.3771780458    1.4399722755    4.9030519319
O        0.7104574302    1.6642866111    6.2441478531
O        2.5309186654    2.3047072454    4.4329216999
O        1.5196185135   -0.0586152849    4.4792866496
H       -1.3922354628   -1.3871521925    0.7707231164
H       -1.2621252476    0.3770223942    0.5258393422
H       -0.0627113775   -0.7177674202   -0.2159667099
H        1.8584631017    0.6745955392    2.4936549173
H        1.7270530440    0.3237938644    0.7137816743
H        0.7216090763    1.6028458753    1.4989902701
H        1.4707092230   -1.5081920487    3.0544123584
H        0.1387642850   -2.5009761201    2.3315568783
H        1.4940141825   -1.9597915811    1.2891130557
H       -1.7186347769   -0.6850249563    2.8623694844
H       -0.2538426492   -0.5963859875    3.9467773441
H       -1.5893802778    1.7958298134    2.5993418516
H       -1.7436456967    1.2590660942    4.2826052593
24   
torsion grid (-60,)
C       -0.7790173269   -0.7131736606    0.8664146880
N        0.0663279809   -0.2071597204    1.9827924351
C        0.9543855495    0.9058842022    1.4533956624
C        0.9720148556   -1.2896858724    2.5005371070
C       -0.8549111525    0.2156008740    3.1564102705
C       -1.2956855627    1.6838577697    3.1554456293
O       -0.2867400601    2.6135370069    3.3028318585
P        0.9598367689    2.3571197355    4.6361262165
O        0.0841585771    2.3575478528    5.8777943634
O        1.8906282122    3.5084677670    4.3288942061
O        1.5349765740    0.9514696821    4.2561595105
H       -1.3433163905   -1.5858153473    1.2020327948
H       -1.4684139093    0.0776390373    0.5650504099
H       -0.1430390884   -0.9885616260    0.0220150613
H        1.5918460205    1.2183382856    2.2889194871
H        1.5169609159    0.4764003671    0.6171488925
H        0.3343998252    1.7382485203    1.1305247446
H        1.5543551091   -0.8148063297    3.3014340213
H        0.3541170428   -2.1059801180    2.8831466161
H        1.6013131595   -1.6464811213    1.6797192483
H       -1.7237629373   -0.4506475602    3.0912455777
H       -0.2717475829    0.0443848871    4.0609491422
H       -1.8648045581    1.9014818314    2.2280711689
H       -2.0285724955    1.7233856667    3.9868218867
24   
torsion grid (-45,)
C       -0.1598669792   -0.9456406783    0.7529078886
N        0.2171765321   -0.2428461651    2.0102915794
C        0.9234925017    1.0510579633    1.6521194332
C        1.1759504120   -1.0733359740    2.8188287781
C       -1.0555129221   -0.0394183181    2.8733973016
C       -1.7724421879    1.3037996121    2.6945422383
O       -1.0866170140    2.4168210283    3.1471042463
P       -0.3006075100    2.2579737052    4.7939406885
O       -1.4244142739    1.6002065195    5.5896266352
O        0.1084023645    3.6868324226    5.0560777004
O        0.8745155854    1.2799391430    4.4639402794
H       -0.5741410509   -1.9272065331    0.9925613663
H       -0.9088871183   -0.3478897375    0.2298676583
H        0.7238571971   -1.0630570213    0.1214551943
H        1.2021094279    1.5195774821    2.6080740223
H        1.7854784551    0.7730989228    1.0359527144
H        0.2377017144    1.6882153991    1.0981360641
H        1.3956923219   -0.4638259333    3.7084811165
H        0.6808869280   -2.0109787281    3.0839970060
H        2.0652004637   -1.2745034020    2.2135646855
H       -1.7199530577   -0.8674134736    2.5996311858
H       -0.7476276075   -0.1166471052    3.9144715851
H       -2.0446717734    1.4444157831    1.6287757797
H       -2.7190654718    1.1512531724    3.2469060151
24   
torsion grid (-30,)
C       -0.8166859196   -0.8994688415    0.8702209583
N        0.0108017364   -0.2740672564    1.9385021079
C        0.8589474772    0.8203829626    1.3202579620
C        0.9502875979   -1.2833780895    2.5452882368
C       -0.9225033474    0.2250484169    3.0727682753
C       -1.2577922524    1.7237839812    3.0684616084
O       -0.1797969468    2.5594924529    3.3048258223
P        0.8947624049    2.0877149499    4.7080525350
O       -0.1065872245    1.3913597245    5.6361318250
O        1.5127484966    3.4079122700    5.0915775720
O        1.8308854533    1.0700250283    3.9825904304
H       -1.3575739820   -1.7544201359    1.2813081511
H       -1.5274682765   -0.1582232415    0.4987761372
H       -0.1705087998   -1.2308519042    0.0538949903
H        1.4802337359    1.2269794296    2.1342621498
H        1.4484902509    0.3452613259    0.5286618971
H        0.2028064121    1.5833495073    0.9055982780
H        1.5288590300   -0.7138801432    3.2950800540
H        0.3528518800   -2.0750687474    3.0041746035
H        1.5802675100   -1.6964068053    1.7510350260
H       -1.8348525345   -0.3753808335    2.9830085885
H       -0.4333076692    0.0252691171    4.0281717586
H       -1.7400625341    2.0058636830    2.1115394388
H       -2.0300887335    1.8030349110    3.8552120152
24   
torsion grid (-15,)
C       -0.8272925331   -1.0760754512    0.8209386279
N       -0.0795836015   -0.3270401979    1.8680507656
C        0.7470550870    0.7524287922    1.1970409339
C        0.8828091181   -1.2457090110    2.5840140723
C       -1.0924973213    0.2075593446    2.9199813880
C       -1.3005693905    1.7314772866    2.9741660124
O       -0.1544009282    2.4577017820    3.2329938221
P        0.9121539894    1.9290395506    4.6251019327
O       -0.0134587535    0.9731434597    5.3974558680
O        1.3248399080    3.2379323123    5.2457202289
O        1.9848989448    1.1575792495    3.8028315755
H       -1.3700237492   -1.9029008686    1.2837271074
H       -1.5325982712   -0.3969433133    0.3364281655
H       -0.1257594727   -1.4672007515    0.0801619213
H        1.3732267925    1.2115408525    1.9781208886
H        1.3451328043    0.2517241353    0.4280313750
H        0.0745157173    1.4787001399    0.7425786873
H        1.4412011236   -0.5989811473    3.2912277406
H        0.3015460861   -2.0180964898    3.0924852778
H        1.5451688154   -1.6954628797    1.8371011059
H       -2.0382156138   -0.3056905642    2.7164505185
H       -0.7031390876   -0.0509769490    3.9131983799
H       -1.7553137253    2.0951430982    2.0324097155
H       -2.0690190107    1.8392294923    3.7634019910
24   
torsion grid (0,)
C        0.6230862386   -1.5571417876    1.2360527134
N        0.4842874446   -0.1505793952    1.7061446812
C        0.3092040855    0.7501971855    0.4986830472
C        1.7632517060    0.2792727015    2.3947713673
C       -0.6869363285   -0.0987690010    2.7344635246
C       -1.8416834858    0.8768633252    2.4207205325
O       -1.4373751803    2.1545921694    2.1030941132
P       -0.3092624779    3.0651805601    3.2220062105
O       -0.0818703202    2.0448674928    4.3568950097
O       -1.0573516363    4.3377249069    3.5229314738
O        0.9038648740    3.1295504998    2.2591383675
H        0.7922131552   -2.2095965828    2.0950982106
H       -0.2937995392   -1.8538404229    0.7213516367
H        1.4698350765   -1.6295683224    0.5494810913
H        0.4027111548    1.7908265595    0.8414095207
H        1.1027314226    0.4811780212   -0.2068862736
H       -0.6687958170    0.5601280607    0.0570365982
H        1.6569313859    1.3505348413    2.6414335142
H        1.8938540522   -0.3368884971    3.2859088153
H        2.5852770039    0.1174756319    1.6896765902
H       -1.0643744018   -1.1229820245    2.8226633219
H       -0.2483236494    0.2763165083    3.6654169849
H       -2.4573396318    0.4811993843    1.5904287497
H       -2.4648645154    0.8202937693    3.3348219776
24   
torsion grid (15,)
C        0.6099120544   -1.4556308737    1.2201946474
N        0.5292417271   -0.0769312221    1.7801799521
C        0.4304316021    0.9020835597    0.6190925945
C        1.8102699212    0.2425455663    2.5186955282
C       -0.6508549491   -0.0358203622    2.8004619611
C       -1.7842773683    0.9778738530    2.5100395228
O       -1.3527066645    2.2260191212    2.1319177496
P       -0.2122287314    3.2096002643    3.1741487642
O        0.3155931527    2.1363821361    4.1627279524
O       -1.0799985794    4.3068328470    3.7370771089
O        0.8134146377    3.5273851520    2.0727720539
H        0.7082941888   -2.1753768889    2.0353831378
H       -0.3002388525   -1.6625205307    0.6524976254
H        1.4785451178   -1.5287191160    0.5616512080
H        0.6020387172    1.9285331326    0.9920473225
H        1.2020305555    0.5946574119   -0.0962991833
H       -0.5578282865    0.8174834773    0.1696891373
H        1.6439153509    1.1908560723    3.0559706959
H        1.9980105467   -0.5664246603    3.2299942187
H        2.6181632130    0.3026055518    1.7848897055
H       -1.0535163579   -1.0535372010    2.8432890088
H       -0.2016918253    0.2781432300    3.7425770127
H       -2.4412867956    0.5743511550    1.7158001566
H       -2.3778525378    0.9678948368    3.4464376367
24   
torsion grid (30,)
C        0.4211741809   -1.5292002520    1.1496586539
N        0.4615186437   -0.1856679744    1.7934556007
C        0.4495351964    0.8616558062    0.6878755813
C        1.7493684493   -0.0033480225    2.5536916110
C       -0.6996937765   -0.0992609446    2.8255352217
C       -1.9449280352    0.6889330664    2.3801613298
O       -1.6832568987    1.9568996321    1.9194893905
P       -0.6665736394    3.1829010229    2.8580963274
O        0.3123686242    2.2569188813    3.6401206829
O       -1.6856639370    3.9213505091    3.6929272094
O       -0.0040437098    3.8398082366    1.6504964147
H        0.5346805592   -2.3033833513    1.9111436254
H       -0.5401584737   -1.6464215492    0.6450708794
H        1.2307302015   -1.6100165767    0.4206138288
H        0.5484851347    1.8767597566    1.0937284970
H        1.2907666862    0.6053892391    0.0333763524
H       -0.4928496908    0.7982126398    0.1490340786
H        1.6672517604    0.9942498455    3.0188589749
H        1.8185269503   -0.7896165989    3.3101249771
H        2.5831511298   -0.0813457567    1.8498281228
H       -0.9556921567   -1.1368438983    3.0699251222
H       -0.2847647556    0.4483218531    3.6729528708
H       -2.4849245247    0.1236444014    1.5936651397
H       -2.5961836599    0.6620250351    3.2799228953
24   
torsion grid (45,)
C        0.1407009810   -1.3712488759    1.1013307016
N        0.5027795022   -0.1530146641    1.8774748602
C        0.6685530383    1.0041274122    0.9038676963
C        1.8243953307   -0.3317688366    2.5712619637
C       -0.5614859153    0.0665418440    2.9848555742
C       -1.7395194781    0.9729750490    2.6045843410
O       -1.4018241993    2.2552102790    2.2337165256
P       -0.2407069499    3.2764625105    3.2526734175
O        0.8973659663    2.2480165936    3.5616024250
O       -1.0912991432    3.6298819996    4.4558483260
O        0.1331875996    4.3002900092    2.2000906065
H        0.1285707119   -2.2374645086    1.7661180125
H       -0.8503491145   -1.2254243012    0.6675740277
H        0.8711485644   -1.5291731596    0.3045966966
H        1.0020274614    1.8743120957    1.4733570101
H        1.4100532440    0.6738460269    0.1678813569
H       -0.2876915697    1.2278392744    0.4393135238
H        2.0004556800    0.6180169215    3.0944207108
H        1.7411271875   -1.1669161289    3.2713585202
H        2.5914307428   -0.5439531317    1.8205105149
H       -0.9094124143   -0.9390967943    3.2517040135
H       -0.0267432034    0.5609993275    3.7975679963
H       -2.3274217891    0.5002392850    1.7905367533
H       -2.3842684399    0.9379046915    3.5082969417
24   
torsion grid (60,)
C        0.1361772004   -1.4215618617    1.1744286412
N        0.5079286029   -0.1598687053    1.8721043045
C        0.6682111512    0.9393462961    0.8374705726
C        1.8280693962   -0.3083709268    2.5761588040
C       -0.5576691952    0.1459158851    2.9568939644
C       -1.7214160584    1.0352229451    2.5071743518
O       -1.4013457343    2.3373934608    2.1770738800
P       -0.2867775843    3.2649989087    3.3055283730
O        1.0008660102    2.3729399307    3.2677677600
O       -1.0320380384    3.1373852895    4.6265397825
O       -0.1838736602    4.5741540961    2.5603568956
H        0.1220079668   -2.2450839258    1.8914938297
H       -0.8557068034   -1.2983377151    0.7356217074
H        0.8635963630   -1.6315515433    0.3869441723
H        0.9809277890    1.8350689189    1.3899156848
H        1.4198646335    0.5839859347    0.1241538682
H       -0.2876568204    1.1151015346    0.3501527141
H        2.0129527739    0.6691707509    3.0419698471
H        1.7340260673   -1.0988126115    3.3251140872
H        2.5926511771   -0.5755397444    1.8404712966
H       -0.9266599829   -0.8358641893    3.2774732375
H       -0.0292809299    0.6642988064    3.7560948198
H       -2.2465916515    0.5582571489    1.6541331855
H       -2.4162813703    0.9845255551    3.3691509535
24   
torsion grid (75,)
C       -0.9858930579   -1.2583525017    2.6234689503
N       -0.0291544799   -0.1271300194    2.4749706508
C        0.2650256466    0.0723658529    1.0006610303
C        1.2741731322   -0.4373279276    3.1600012342
C       -0.6227639690    1.1292845076    3.1644804498
C       -1.3855762944    2.0967482531    2.2514260799
O       -0.6167391044    2.7760379230    1.3216381355
P        0.9504718904    3.4750310723    1.9503707878
O        1.8123327774    2.1745039199    2.0661725129
O        0.5110509434    3.9820110814    3.3243586429
O        1.3277169345    4.4239353128    0.8410560366
H       -1.1264133486   -1.4816997507    3.6831631394
H       -1.9403766077   -0.9696604553    2.1787490392
H       -0.5923702414   -2.1390905009    2.1105723897
H        0.9894032563    0.9003497187    0.9455004413
H        0.6641245735   -0.8788058620    0.6321285322
H       -0.6591808177    0.3295460574    0.4873668080
H        1.9044354167    0.4478380605    2.9780234164
H        1.0768079724   -0.5818695394    4.2252329311
H        1.6910806697   -1.3514366812    2.7259230756
H       -1.2857990191    0.7390537541    3.9454677910
H        0.2051030328    1.6822824397    3.6060069801
H       -2.2038909531    1.5592502868    1.7314321480
H       -1.8635645178    2.7859752486    2.9721677554
24   
torsion grid (90,)
C        0.0029778010   -1.2261635059    1.4753723894
N        0.4659226689    0.0706174817    2.0419982909
C        0.6914597717    1.0467306362    0.9036861858
C        1.7837504407   -0.0997873428    2.7542488039
C       -0.5663401291    0.5592291861    3.0932428683
C       -1.5190236846    1.6809357803    2.6504457998
O       -0.8942464855    2.8787268892    2.3515622231
P        0.3369146489    3.4748892978    3.5684319203
O        1.6098603706    2.7892686769    2.9830895236
O       -0.1493073958    2.8009758050    4.8582617917
O        0.2469464420    4.9711998374    3.4112202443
H       -0.0726345077   -1.9666921869    2.2743555413
H       -0.9768821779   -1.0785660795    1.0160557143
H        0.7144156282   -1.5707728631    0.7211017084
H        1.0868388414    1.9700313943    1.3565531560
H        1.4049766757    0.5689261522    0.2236024016
H       -0.2568624335    1.2258637511    0.4000466040
H        2.0550318636    0.9169804876    3.0972369842
H        1.6351070580   -0.7903802071    3.5879257778
H        2.5112298588   -0.5102769390    2.0465544163
H       -1.1283283754   -0.3334315938    3.3894708873
H       -0.0176420098    0.9628358045    3.9491724359
H       -2.1225638443    1.3538964954    1.7808947462
H       -2.2095746939    1.7657600999    3.5095861672
24   
torsion grid (105,)
C        0.0671863120   -1.3475149706    1.4605910429
N        0.3602108942    0.0052447334    2.0096539221
C        0.5692472210    0.9643434990    0.8542181148
C        1.6486908491   -0.0264766380    2.8011457587
C       -0.7926031795    0.4069579012    2.9762158892
C       -1.6365720734    1.6340739630    2.5822112854
O       -0.9122371779    2.7892175118    2.3704987474
P        0.3295072299    3.3078696686    3.6142410378
O        1.6046224053    2.9033813404    2.8248024754
O        0.0287051711    2.3603462636    4.7901296770
O        0.0539503313    4.7807830678    3.7738538609
H       -0.0264706043   -2.0595996135    2.2830904785
H       -0.8686600600   -1.3074474701    0.8983394331
H        0.8802079538   -1.6568175371    0.7994261858
H        0.9248312947    1.9157603189    1.2781834587
H        1.3161783036    0.5034706746    0.1989864925
H       -0.3749873667    1.0868646760    0.3246681312
H        1.8502359730    1.0198354080    3.1057546226
H        1.5068398436   -0.6914286223    3.6554448270
H        2.4374428514   -0.4082614591    2.1446193627
H       -1.4274882131   -0.4792231772    3.0787725412
H       -0.3239393878    0.6909177514    3.9272041366
H       -2.2367829223    1.4147385356    1.6781916935
H       -2.3492892673    1.7129170317    3.4262868547
24   
torsion grid (120,)
C       -0.1263801521   -1.5321929930    1.5898411061
N        0.2833317814   -0.1519496418    1.9734899748
C        0.5188809393    0.6526159180    0.7087642174
C        1.6084644993   -0.2108057975    2.7058091667
C       -0.8104871757    0.4218567485    2.9282034727
C       -1.4387859757    1.7739324626    2.5198110963
O       -0.5164729674    2.7230498001    2.1433221533
P        0.8390772211    3.1863919782    3.2863860558
O        2.0074448431    2.7793195791    2.3581112341
O        0.6205348889    2.2060171908    4.4578047406
O        0.6088156282    4.6551640133    3.5393794805
H       -0.2625979934   -2.1316607574    2.4921857583
H       -1.0648093078   -1.4846118254    1.0325251730
H        0.6493161323   -1.9819005949    0.9656809971
H        1.0221523824    1.5872145921    0.9908250126
H        1.1458846138    0.0315311227    0.0597103928
H       -0.4409624464    0.8480472434    0.2312175735
H        1.9336091105    0.8250245922    2.8926500734
H        1.4607587485   -0.7624055622    3.6354625430
H        2.3166831766   -0.7332947688    2.0543281315
H       -1.5802644233   -0.3524579992    3.0138627005
H       -0.2959903154    0.6214190000    3.8730116871
H       -2.1546217412    1.6213846343    1.6895688411
H       -2.0347361390    2.0534204606    3.4103450630
24   
torsion grid (135,)
C       -0.0496118649   -1.4264537078    1.1796174022
N        0.2732017806   -0.2001079056    1.9626807076
C        0.6214964310    0.9087575482    0.9787329347
C        1.5058450351   -0.4422619268    2.8036666872
C       -0.9213248414    0.0926467353    2.9241200004
C       -1.6781400202    1.4231821550    2.7007467882
O       -0.8642611697    2.5136359224    2.5162349188
P        0.4150663612    2.9983566227    3.7392267875
O        1.5410914693    3.2554961271    2.7301974571
O        0.6001494808    1.6821603587    4.5425877661
O       -0.2085155318    4.1550834590    4.4811210831
H       -0.2604707000   -2.2511785518    1.8633169538
H       -0.9256507700   -1.2294351921    0.5574505857
H        0.8009287279   -1.6861602047    0.5451111855
H        1.0545533734    1.7718012285    1.5148249409
H        1.3385385611    0.4660905274    0.2774122096
H       -0.2830454461    1.2131263576    0.4551105134
H        1.6031208746    0.4334850820    3.4715036908
H        1.3423755061   -1.3504682136    3.3902229368
H        2.3576898923   -0.5710622818    2.1306080854
H       -1.6040081605   -0.7586383549    2.8290510988
H       -0.4760151359    0.1650363973    3.9159494229
H       -2.3456940119    1.3239127074    1.8228715809
H       -2.3369282495    1.4934706412    3.5903929723
24   
torsion grid (150,)
C       -0.0419440739   -1.3066698268    1.2995723706
N        0.3565999743   -0.0564080420    2.0057489402
C        0.7608484211    0.9677047590    0.9542600955
C        1.5658625665   -0.2952967960    2.8692437844
C       -0.8016038526    0.3680034522    2.9508743970
C       -1.7612095296    1.4357019003    2.4003731961
O       -1.1535376232    2.5949955757    1.9795662335
P        0.0696871838    3.5209869284    3.0177856997
O        0.8911269213    4.1047254150    1.8772087315
O        0.8061370302    2.3588330332    3.7533936745
O       -0.8058455688    4.3887905102    3.8929132832
H       -0.2262626886   -2.0964045461    2.0306502017
H       -0.9531420132   -1.1105664455    0.7308986884
H        0.7561163069   -1.6141908334    0.6199290536
H        1.1185187288    1.8848828880    1.4291593283
H        1.5455161917    0.4855309044    0.3600282354
H       -0.1023652249    1.2121310337    0.3409421746
H        1.7703125974    0.6776971867    3.3435911563
H        1.3176976829   -1.0587001864    3.6112482903
H        2.3875540472   -0.6391545720    2.2340209663
H       -1.3366324698   -0.5588294839    3.1907289709
H       -0.3096973265    0.8142299155    3.8167802114
H       -2.3523910269    1.0117476108    1.5626975156
H       -2.4782651333    1.5853221624    3.2359709214
24   
torsion grid (165,)
C       -0.3226190876   -1.4097585973    1.5284437973
N        0.3026521559   -0.1768528232    2.0817208000
C        0.9108167864    0.6124808767    0.9326872450
C        1.4263010144   -0.5199499714    3.0196116036
C       -0.7587079536    0.5917909620    2.9115628742
C       -1.5658150656    1.6462021921    2.1435145039
O       -0.8267489482    2.6665919243    1.5860295214
P        0.4342348180    3.5673338932    2.5943914421
O        1.1798868826    4.2509631098    1.4674387197
O        1.2380066852    2.3783700910    3.2222503035
O       -0.4269216322    4.3220168488    3.5875014871
H       -0.6640348445   -2.0454991062    2.3480777674
H       -1.1726204820   -1.1203991548    0.9077050164
H        0.4077323343   -1.9509576235    0.9226598163
H        1.4180506241    1.4784341876    1.3669829634
H        1.5986792379   -0.0736394325    0.4260782665
H        0.1210890858    0.9529592398    0.2686852288
H        1.8230604993    0.4483260998    3.3531755352
H        1.0201179954   -1.0969561549    3.8542662962
H        2.1697964031   -1.1124774724    2.4782005243
H       -1.4174821202   -0.1833056830    3.3224653750
H       -0.1915057538    1.1164819145    3.6819369312
H       -2.1652892939    1.1532411772    1.3503598963
H       -2.2934902301    2.0054489173    2.9011054974
24   
torsion grid (180,)
C       -0.4841752413   -1.2247676795    0.8851283215
N        0.1929597597   -0.3077887931    1.8428861503
C        0.8518823193    0.8139598420    1.0603674148
C        1.2779650124   -1.0275352128    2.5952620172
C       -0.8428586283    0.1790324916    2.8890460346
C       -1.5602984986    1.4897751041    2.5492325215
O       -0.7692325628    2.6226158748    2.5199730068
P        0.4040119609    2.8660826230    3.9090506251
O        1.0431088475    4.1709430653    3.4968997952
O        1.3473454617    1.6267921896    3.7262635343
O       -0.5207833968    2.7304328223    5.1097567814
H       -0.8695019025   -2.0943744629    1.4217283666
H       -1.3092131032   -0.6885695206    0.4124337569
H        0.2289015107   -1.5483494627    0.1234364875
H        1.3640291036    1.4422050333    1.8025778033
H        1.5339668132    0.3343438789    0.3498373807
H        0.0857382734    1.3880977182    0.5448987721
H        1.7148258825   -0.2667153009    3.2575399305
H        0.8224568337   -1.8423475103    3.1638138874
H        2.0002497480   -1.4270918109    1.8770006203
H       -1.5646077914   -0.6418916319    2.9781321596
H       -0.2876805582    0.3306959757    3.8135575495
H       -2.0898893940    1.3855451618    1.5802430813
H       -2.3436042381    1.5514674897    3.3301957661
