12   
torsion grid (-165,)
C       -0.9726909675    0.0922321317    2.4283286887
N       -0.1674734045    0.6668595127    1.6214202599
N        2.0316754594    1.5074618700   -0.6694591494
N        0.0192258511    0.0915959336    0.3811099770
O        0.1790479644    0.4710805306   -2.0745015334
O       -0.2549152895    2.5177255227   -0.6052182675
S        0.3974675253    1.2441530272   -0.8604321906
H       -1.0780590843    0.5219463906    3.4209945766
H       -1.5531951529   -0.8031041215    2.1764808050
H        2.5532134016    0.6324802825   -0.6597314462
H        2.2102200746    2.0682126400    0.1626649190
H       -0.7342512430   -0.5171632729    0.0371313979
12   
torsion grid (-150,)
C       -1.0724997572    0.0703787994    2.4304852515
N       -0.2965827399    0.7404004773    1.6694664531
N        2.0627155743    1.4922223072   -0.7874734954
N        0.0922617923    0.1550775223    0.4826480737
O        0.0609999040    0.4941562334   -1.9865858869
O       -0.1722662037    2.5763364028   -0.5108087794
S        0.4072168489    1.2791235291   -0.8086831498
H       -1.3402843674    0.5137676343    3.3859456672
H       -1.4758014377   -0.9171080812    2.1757351893
H        2.5558897762    0.6012820807   -0.8138005627
H        2.3414211959    2.0572397362    0.0136908051
H       -0.5328054509   -0.5693961943    0.1081684713
12   
torsion grid (-135,)
C       -1.1605911168    0.0524777802    2.4212701077
N       -0.4389724815    0.8090655242    1.6880126654
N        2.0739212106    1.4725365917   -0.8819178265
N        0.1592467125    0.2366739373    0.5844533632
O       -0.0300948165    0.5273867492   -1.9056599732
O       -0.0986298296    2.6331602677   -0.4350540445
S        0.4140394349    1.3174263091   -0.7632634128
H       -1.5957547280    0.4920767468    3.3149512514
H       -1.3601354583   -1.0037021663    2.2029316399
H        2.5284766513    0.5676217513   -0.9923991535
H        2.4462613292    1.9870770844   -0.0848111062
H       -0.3075017729   -0.5983201284    0.2102745262
12   
torsion grid (-120,)
C       -1.3340528735   -0.4073516250    2.1822249287
N       -1.0168559241    0.0645569847    1.0376463523
N        1.3356467348    2.3600123111   -0.6416624412
N        0.2167190772    0.6521474772    0.9195001613
O        2.1555561502    0.0025795163   -0.6437196476
O       -0.1726442111    0.4593953436   -1.6038084429
S        0.8896628352    0.7310977987   -0.6500567175
H       -2.3289780616   -0.8325551772    2.2818462511
H       -0.6726900838   -0.4002310416    3.0567005677
H        2.0871207003    2.4918568719   -1.3191542621
H        0.5340804243    2.9472577492   -0.8734321189
H        0.9367003670    0.4247142382    1.6127034062
12   
torsion grid (-105,)
C       -1.2971091222   -0.4589666435    2.1901429799
N       -1.0060304893   -0.0507898167    1.0149636915
N        1.3926006896    2.3233817830   -0.6141389422
N        0.1219353195    0.7226133029    0.8802036270
O        2.0514451020   -0.0804548799   -0.6812371735
O       -0.2311523865    0.5425400744   -1.6421931436
S        0.8369465871    0.7318271141   -0.6753764341
H       -2.2136993833   -1.0318135107    2.3019170024
H       -0.6883112366   -0.2588356022    3.0799715194
H        2.1802709676    2.4209810958   -1.2546508591
H        0.6438505963    2.9741855600   -0.8511413900
H        0.8395184907    0.6588119698    1.6103271594
12   
torsion grid (-90,)
C       -1.2465675159   -0.5097643117    2.2022182051
N       -0.9754666599   -0.1497372909    1.0074715831
N        1.4331985979    2.2943921059   -0.5859760945
N        0.0193523659    0.7899587002    0.8441256965
O        1.9256751872   -0.1539182370   -0.7026869513
O       -0.2856149456    0.6481049633   -1.6838329993
S        0.7742965418    0.7459145327   -0.6946394677
H       -2.0614902438   -1.2164996097    2.3342203841
H       -0.7172435817   -0.1432803898    3.0900305040
H        2.2815342314    2.3307137298   -1.1502932199
H        0.7577830680    2.9961106093   -0.8880559786
H        0.7248080895    0.8614856452    1.5862063755
12   
torsion grid (-75,)
C       -1.1822642154   -0.5574110292    2.2150479933
N       -0.9381280669   -0.2276877273    1.0065853470
N        1.4617130797    2.2698387511   -0.5576777832
N       -0.0988503411    0.8515479716    0.8041185345
O        1.7805289447   -0.2207753302   -0.6993130867
O       -0.3220270140    0.7669483834   -1.7393441231
S        0.7060686924    0.7691816909   -0.7116059234
H       -1.8764576157   -1.3776363493    2.3776597948
H       -0.7420102208   -0.0587323974    3.0870322478
H        2.3736447315    2.2266685990   -1.0108971440
H        0.8837205250    3.0075775872   -0.9591694487
H        0.5843266354    1.0439602974    1.5463516287
12   
torsion grid (-60,)
C       -1.1101201136   -0.5926403292    2.2349552363
N       -0.8811548110   -0.3070969120    1.0129045424
N        1.4762898486    2.2470477276   -0.5210315737
N       -0.2164066086    0.8784684126    0.7540481115
O        1.6334046737   -0.2761942908   -0.7224204696
O       -0.3431622777    0.9008366418   -1.8041027959
S        0.6407214890    0.7943179601   -0.7385554544
H       -1.6702403422   -1.5015726466    2.4381663278
H       -0.7825520177    0.0255459712    3.0796129256
H        2.4396555192    2.1213134291   -0.8288298691
H        1.0204550574    3.0003914167   -1.0347510652
H        0.4233747176    1.2030630668    1.4887921213
12   
torsion grid (-45,)
C       -1.0313842818   -0.6131211062    2.2638782739
N       -0.8081205024   -0.3858976375    1.0284983277
N        1.4769627162    2.2218180664   -0.4766819560
N       -0.3251871020    0.8636869502    0.6914465938
O        1.4935228651   -0.3193322848   -0.7907388795
O       -0.3496297352    1.0547408866   -1.8738238374
S        0.5804770760    0.8183038445   -0.7803350901
H       -1.4542311076   -1.5795087392    2.5255266106
H       -0.8288926582    0.1086900284    3.0645350345
H        2.4675208820    2.0167898941   -0.6009283604
H        1.1755636119    2.9684790729   -1.1017594755
H        0.2336633708    1.3388314718    1.4091707954
12   
torsion grid (-30,)
C       -0.9869942120   -0.5838502048    2.2655668229
N       -0.1284585235   -0.4820853509    1.3257142628
N        1.7468504794    2.0527499072   -0.8630401743
N        0.1215350781    0.7859762752    0.8351129857
O        1.3120651938   -0.4151613164   -1.1105256062
O       -0.5204466440    1.3213523523   -1.6112109163
S        0.6149215998    0.8238495669   -0.8408776667
H       -1.1488954899   -1.5735694357    2.6846210752
H       -1.5564134068    0.2603456322    2.6738321461
H        2.5059935686    1.8825234310   -0.2060746826
H        1.3240667408    2.9709388471   -0.7452537150
H       -0.6539592496    1.4504107431    0.9509235055
12   
torsion grid (-15,)
C       -0.9284514514   -0.5762260189    2.2915306678
N       -0.0402183747   -0.3916112542    1.3926031368
N        1.7954163527    2.0159550409   -0.8497882108
N        0.0050611921    0.8537150031    0.7979076598
O        1.2234425870   -0.4070382707   -1.1211552271
O       -0.5118449573    1.4364613419   -1.6281064834
S        0.5828571157    0.8634363078   -0.8524739390
H       -0.9349579371   -1.5406111663    2.7927119698
H       -1.6715837494    0.1752472898    2.5853834310
H        2.5564563344    1.7480048792   -0.2276005867
H        1.4354426797    2.9434073008   -0.6323617262
H       -0.8813546568    1.3727399936    0.8101373451
12   
torsion grid (0,)
C       -0.8621809981   -0.5513711311    2.3123959647
N        0.0273260075   -0.2750870575    1.4387108417
N        1.8282997107    1.9767625991   -0.8030557998
N       -0.1167115516    0.9062072465    0.7411181658
O        1.1352179684   -0.3924713866   -1.1553951141
O       -0.4941245952    1.5482730122   -1.6628964344
S        0.5474989097    0.9022895124   -0.8730975783
H       -0.7234425256   -1.4595887599    2.8930404866
H       -1.7443149522    0.0703013108    2.5083769919
H        2.5798387142    1.6048005970   -0.2239399038
H        1.5290083858    2.8973818393   -0.4862484794
H       -1.0761499386    1.2659826649    0.6697788962
12   
torsion grid (15,)
C       -0.7879979051   -0.5096161568    2.3238849029
N        0.0820269023   -0.1344670436    1.4680421927
N        1.8487836123    1.9245443139   -0.7315455614
N       -0.2307751815    0.9508852855    0.6767482662
O        1.0342137479   -0.3798626765   -1.2078474758
O       -0.4670593710    1.6564425750   -1.7063579694
S        0.5099259388    0.9378352265   -0.8987200980
H       -0.5208394157   -1.3358196278    2.9774965051
H       -1.7764575935   -0.0476199214    2.4344532900
H        2.5704403176    1.4592867373   -0.1825331042
H        1.5996795654    2.8305484189   -0.3382506664
H       -1.2316754826    1.1413233162    0.5434177554
12   
torsion grid (30,)
C       -0.7069692172   -0.4585316720    2.3261118241
N        0.1191471472    0.0153902751    1.4760543956
N        1.8605298421    1.8534556823   -0.6412779584
N       -0.3391028998    0.9835183166    0.6060502358
O        0.9191959409   -0.3671928642   -1.2720977563
O       -0.4168546199    1.7725096874   -1.7570525399
S        0.4734649974    0.9725313304   -0.9283351290
H       -0.3285502872   -1.1849195212    3.0404782249
H       -1.7643382279   -0.1725393347    2.3741603909
H        2.5167725521    1.3160149486   -0.0763398368
H        1.6494222551    2.7580968529   -0.2234725168
H       -1.3524523479    1.0051467460    0.4345087029
12   
torsion grid (45,)
C       -0.6263980718   -0.3983871415    2.3293573601
N        0.1376257459    0.1471015115    1.4638515425
N        1.8616541061    1.7728208620   -0.5440140151
N       -0.4363609470    0.9848807803    0.5295132939
O        0.8048775335   -0.3401614496   -1.3737639002
O       -0.3482222709    1.9029759210   -1.7958184238
S        0.4438315924    1.0086654729   -0.9655189106
H       -0.1587561182   -1.0149996858    3.0923302920
H       -1.7152921021   -0.2744171670    2.3450656154
H        2.4232947358    1.1767929197    0.0630640292
H        1.6802573768    2.6815379648   -0.1205935461
H       -1.4362464456    0.8466704589    0.3353146998
12   
torsion grid (60,)
C       -0.5669214637   -0.3387667551    2.3416760136
N        0.1411586790    0.2580377985    1.4614776957
N        1.8610083879    1.6939334608   -0.4704262706
N       -0.5108092698    0.9546190127    0.4651089259
O        0.6960174094   -0.2952368270   -1.4963676285
O       -0.2769345608    2.0382215923   -1.7952826678
S        0.4243550268    1.0451147678   -0.9971525314
H       -0.0426381381   -0.8392134805    3.1513057955
H       -1.6621284675   -0.3641705419    2.3269971459
H        2.3256107463    1.0629038059    0.1819771307
H        1.7135152228    2.6148448540   -0.0595854379
H       -1.4719684374    0.6631927597    0.2490598659
12   
torsion grid (75,)
C       -0.5349667412   -0.2792904070    2.3641630038
N        0.1256986271    0.3559678673    1.4725586725
N        1.8599995174    1.6264835430   -0.4226633001
N       -0.5656444778    0.8956190307    0.4107885267
O        0.6064920459   -0.2236458506   -1.6310441714
O       -0.2169064405    2.1733279477   -1.7570389163
S        0.4097392308    1.0858359014   -1.0232568644
H        0.0165646987   -0.6537227320    3.2222131846
H       -1.6152373698   -0.4530954317    2.3142284611
H        2.2517651748    0.9644636441    0.2465314332
H        1.7514463786    2.5506790274   -0.0065152977
H       -1.4586855091    0.4508579069    0.1688233053
12   
torsion grid (90,)
C       -0.5542346501   -0.1785067202    2.3824993698
N        0.1280167254   -0.0380068795    1.3099858207
N        1.7746361657    1.6868244921   -0.3266842536
N       -0.5419244894    0.2914016297    0.1566139708
O        0.9639641874   -0.0904520814   -1.9047862575
O       -0.3780950598    2.0647454915   -1.6107590037
S        0.4581203687    0.9921755082   -1.0845772915
H       -0.0171786616   -0.4735930203    3.2798045575
H       -1.6386596089   -0.0337991647    2.4382687668
H        2.3335826550    0.9818391485    0.1525719871
H        1.4926130913    2.4334881846    0.3066049986
H       -1.3905755889    0.8573638585    0.2592453720
12   
torsion grid (105,)
C       -0.5764025876   -0.1078345490    2.4038607794
N        0.1479746164    0.0742596419    1.3648913890
N        1.7979869133    1.6558471263   -0.3272121466
N       -0.4827515958    0.2147847636    0.1534675910
O        0.9133210405    0.0235695620   -2.0193833170
O       -0.4058886609    2.1397236583   -1.4893392778
S        0.4512147638    1.0309736286   -1.0835759844
H       -0.0624153578   -0.2557072121    3.3496729018
H       -1.6712072288   -0.1367949061    2.3866228642
H        2.3922434218    0.9107261066    0.0340159844
H        1.5446542089    2.3103409365    0.4115351084
H       -1.4184643989    0.6335916905    0.1742321445
12   
torsion grid (120,)
C       -0.6134717503   -0.0400113227    2.4217346118
N        0.1437358556    0.2084946020    1.4199994104
N        1.8249394329    1.6275290228   -0.3385762106
N       -0.4089294754    0.1609721613    0.1643990499
O        0.8423802215    0.1347713759   -2.0996337058
O       -0.4259253276    2.2158174621   -1.3600994006
S        0.4380014925    1.0764188516   -1.0713749465
H       -0.1524671649   -0.0423226261    3.4055993429
H       -1.6826771466   -0.2621726025    2.3386060697
H        2.4507665695    0.8540169258   -0.1181578820
H        1.6220794847    2.1770884679    0.4949543019
H       -1.4081670572    0.3828781292    0.1013373959
12   
torsion grid (135,)
C       -0.6588120748    0.0178267103    2.4297347811
N        0.1120478403    0.3442241622    1.4615916520
N        1.8558314679    1.5985321417   -0.3575225126
N       -0.3293362019    0.1240327244    0.1799560620
O        0.7490652737    0.2356008894   -2.1492647868
O       -0.4262694213    2.2983184914   -1.2188911145
S        0.4213261593    1.1245091477   -1.0479263453
H       -0.2766436830    0.1525760832    3.4377762053
H       -1.6632471899   -0.3978452232    2.2966123955
H        2.4825077405    0.8024343057   -0.2472859456
H        1.7094557634    2.0714460028    0.5329997627
H       -1.3456605393    0.1218250116    0.0410078833
12   
torsion grid (150,)
C       -0.7118468727    0.0725628489    2.4294947867
N        0.0649076726    0.4550830438    1.4882765635
N        1.8889940048    1.5709718462   -0.3896222434
N       -0.2439638857    0.0854308084    0.1992403891
O        0.6351641041    0.3284938215   -2.1810929578
O       -0.4209607252    2.3636499258   -1.0563383400
S        0.4035303673    1.1632329257   -1.0137640075
H       -0.4262080113    0.3270799768    3.4464358738
H       -1.6304906651   -0.5012821196    2.2668012098
H        2.5020297989    0.7569467871   -0.3700659986
H        1.8004710617    1.9860294885    0.5372450767
H       -1.2313617144   -0.1147189058    0.0021776847
12   
torsion grid (165,)
C       -0.7796482656    0.1012628171    2.4251287380
N        0.0065782545    0.5370003776    1.5169501240
N        1.9329724032    1.5443747059   -0.4532844598
N       -0.1545180663    0.0604891829    0.2335269897
O        0.4872051975    0.3970217550   -2.1834813483
O       -0.3892715291    2.4173604189   -0.8880085132
S        0.3921906897    1.1915141880   -0.9694807566
H       -0.6074443023    0.4422849855    3.4423663981
H       -1.6019989736   -0.5970858274    2.2346073195
H        2.5133052584    0.7066585509   -0.4482356788
H        1.9153128245    1.9914669966    0.4628640046
H       -1.0844183561   -0.2988677039   -0.0141647800
12   
torsion grid (180,)
C       -0.8691208593    0.1079474833    2.4229791064
N       -0.0650740287    0.5993875920    1.5612994706
N        1.9844746210    1.5234551240   -0.5478225169
N       -0.0630237953    0.0563458977    0.2922904139
O        0.3278386803    0.4466249130   -2.1500052341
O       -0.3336044946    2.4633269276   -0.7289788256
S        0.3909022034    1.2157190089   -0.9167388723
H       -0.8263355210    0.5067745698    3.4329984354
H       -1.5873678159   -0.6893938391    2.2004690061
H        2.5327333958    0.6646921613   -0.5379748098
H        2.0572861551    2.0290090569    0.3344869861
H       -0.9184434060   -0.4304084482   -0.0042151228
