19
0 1 C4H11NO2S
N                    -0.632668244299     0.548611804660     2.214662306680
C                    -0.457255397149    -0.295364451219     1.039469711265
C                    -0.037609434003     0.388492247691    -0.290612762665
C                    -0.233817331542    -0.526015805470    -1.500003699908
H                     0.024626393938    -0.037453236766    -2.443803516174
H                     0.374259910191    -1.428861269167    -1.401492504295
H                    -1.286440821900    -0.820462208313    -1.560137884682
S                     1.726616087932     0.880100728669    -0.151104610426
O                     2.552558772945    -0.337121269277    -0.243016341793
O                     1.862839700725     1.772623230887     1.018547700680
C                     2.054323416341     1.887385463931    -1.619683195764
H                     3.069005985508     2.267567930756    -1.486019805817
H                     1.998538544354     1.267335333801    -2.514266668589
H                     1.344377566556     2.715443312589    -1.653937095907
H                    -0.584768922392     1.331052926725    -0.407528355366
H                    -1.404544729653    -0.807876987799     0.836115153786
H                     0.269404102077    -1.080687673461     1.273338108408
H                     0.232501966333     1.047538949339     2.415584966787
H                    -1.345864226428     1.254500447479     2.040847490038
