
  -OEChem-12102412493D

 20 19  0     0  0  0  0  0  0999 V2000
   -3.5280    2.5723    1.1465 O   0  0  0  0  0  0  0  0  0  0  0  0
   -3.1330    1.4872   -0.0363 S   0  0  0  0  0  0  0  0  0  0  0  0
   -4.1240    0.4102    0.0327 O   0  0  0  0  0  0  0  0  0  0  0  0
   -2.9056    2.2262   -1.2695 O   0  0  0  0  0  0  0  0  0  0  0  0
   -1.5445    0.9135    0.6063 C   0  0  0  0  0  0  0  0  0  0  0  0
   -0.9098   -0.0836   -0.3641 C   0  0  0  0  0  0  0  0  0  0  0  0
    0.4341   -0.5889    0.1809 C   0  0  0  0  0  0  0  0  0  0  0  0
    1.0698   -1.5800   -0.7945 C   0  0  0  0  0  0  0  0  0  0  0  0
    2.2567   -2.2213   -0.1727 N   0  0  0  0  0  0  0  0  0  0  0  0
    2.8153   -3.5153   -1.2841 Cl  0  0  0  0  0  0  0  0  0  0  0  0
    3.5691   -0.9985   -0.0515 Cl  0  0  0  0  0  0  0  0  0  0  0  0
    0.3811   -2.4090   -0.9841 H   0  0  0  0  0  0  0  0  0  0  0  0
    1.3156   -1.1078   -1.7530 H   0  0  0  0  0  0  0  0  0  0  0  0
    1.1088    0.2563    0.3464 H   0  0  0  0  0  0  0  0  0  0  0  0
    0.2909   -1.0862    1.1465 H   0  0  0  0  0  0  0  0  0  0  0  0
   -1.5932   -0.9255   -0.5175 H   0  0  0  0  0  0  0  0  0  0  0  0
   -0.7635    0.4007   -1.3346 H   0  0  0  0  0  0  0  0  0  0  0  0
   -0.9334    1.8101    0.7364 H   0  0  0  0  0  0  0  0  0  0  0  0
   -1.7531    0.4686    1.5821 H   0  0  0  0  0  0  0  0  0  0  0  0
   -4.3932    2.3038    1.5126 H   0  0  0  0  0  0  0  0  0  0  0  0
  1  2  1  0  0  0  0
  1 20  1  0  0  0  0
  2  3  2  0  0  0  0
  2  4  2  0  0  0  0
  2  5  1  0  0  0  0
  5  6  1  0  0  0  0
  5 18  1  0  0  0  0
  5 19  1  0  0  0  0
  6  7  1  0  0  0  0
  6 16  1  0  0  0  0
  6 17  1  0  0  0  0
  7  8  1  0  0  0  0
  7 14  1  0  0  0  0
  7 15  1  0  0  0  0
  8  9  1  0  0  0  0
  8 12  1  0  0  0  0
  8 13  1  0  0  0  0
  9 10  1  0  0  0  0
  9 11  1  0  0  0  0
M  END
$$$$
