
  -OEChem-12122420533D

 19 18  0     0  0  0  0  0  0999 V2000
   -2.4167   -0.2474    1.3550 C   0  0  0  0  0  0  0  0  0  0  0  0
   -1.6094   -0.2849    2.4199 C   0  0  0  0  0  0  0  0  0  0  0  0
   -0.2150    0.2584    2.4142 C   0  0  0  0  0  0  0  0  0  0  0  0
   -0.1621    1.8250    3.3731 S   0  0  0  0  0  0  0  0  0  0  0  0
   -0.6508    1.5410    4.7347 O   0  0  0  0  0  0  0  0  0  0  0  0
   -0.7754    2.8899    2.5627 O   0  0  0  0  0  0  0  0  0  0  0  0
    1.6325    2.1937    3.4887 C   0  0  0  0  0  0  0  0  0  0  0  0
    2.3664    1.1897    4.3190 C   0  0  0  0  0  0  0  0  0  0  0  0
    3.3280    0.3907    3.8420 C   0  0  0  0  0  0  0  0  0  0  0  0
    3.8387   -0.3219    4.4840 H   0  0  0  0  0  0  0  0  0  0  0  0
    3.6451    0.4318    2.8013 H   0  0  0  0  0  0  0  0  0  0  0  0
    2.0676    1.1274    5.3633 H   0  0  0  0  0  0  0  0  0  0  0  0
    2.0081    2.2666    2.4649 H   0  0  0  0  0  0  0  0  0  0  0  0
    1.6363    3.1922    3.9394 H   0  0  0  0  0  0  0  0  0  0  0  0
    0.1317    0.5061    1.4083 H   0  0  0  0  0  0  0  0  0  0  0  0
    0.4949   -0.4128    2.9056 H   0  0  0  0  0  0  0  0  0  0  0  0
   -1.9589   -0.6986    3.3629 H   0  0  0  0  0  0  0  0  0  0  0  0
   -3.4272   -0.6441    1.4012 H   0  0  0  0  0  0  0  0  0  0  0  0
   -2.0968    0.1836    0.4089 H   0  0  0  0  0  0  0  0  0  0  0  0
  1  2  2  0  0  0  0
  1 18  1  0  0  0  0
  1 19  1  0  0  0  0
  2  3  1  0  0  0  0
  2 17  1  0  0  0  0
  3  4  1  0  0  0  0
  3 15  1  0  0  0  0
  3 16  1  0  0  0  0
  4  5  2  0  0  0  0
  4  6  2  0  0  0  0
  4  7  1  0  0  0  0
  7  8  1  0  0  0  0
  7 13  1  0  0  0  0
  7 14  1  0  0  0  0
  8  9  2  0  0  0  0
  8 12  1  0  0  0  0
  9 10  1  0  0  0  0
  9 11  1  0  0  0  0
M  END
$$$$
