19
0 1 C6H10O2S
C                    -2.416743822544    -0.247439114960     1.354996041757
C                    -1.609445061391    -0.284921075465     2.419858289726
C                    -0.215013029945     0.258413001451     2.414179847831
S                    -0.162111411740     1.824995052743     3.373106342834
O                    -0.650767703019     1.541026893140     4.734669542568
O                    -0.775366509602     2.889869360660     2.562740327690
C                     1.632471218152     2.193704200917     3.488684731182
C                     2.366429420515     1.189688791256     4.318981676788
C                     3.327990694142     0.390736260696     3.841971729232
H                     3.838701165357    -0.321851442813     4.483956556375
H                     3.645071927199     0.431822965776     2.801340204109
H                     2.067575019133     1.127411899163     5.363281500670
H                     2.008082366476     2.266621656068     2.464928122254
H                     1.636337619691     3.192173156064     3.939400487569
H                     0.131702857174     0.506099512049     1.408262024930
H                     0.494925633614    -0.412787927039     2.905595512508
H                    -1.958934424481    -0.698648069799     3.362856905236
H                    -3.427217363802    -0.644106790716     1.401221914820
H                    -2.096784415805     0.183613374089     0.408886620971
