
  -OEChem-12122420533D

 22 21  0     1  0  0  0  0  0999 V2000
    0.6646   -1.5964   -2.1477 O   0  0  0  0  0  0  0  0  0  0  0  0
    1.7809   -0.8762   -1.8710 C   0  0  0  0  0  0  0  0  0  0  0  0
    2.6290   -0.6222   -2.6995 O   0  0  0  0  0  0  0  0  0  0  0  0
    1.8537   -0.4671   -0.3966 C   0  0  1  0  0  0  0  0  0  0  0  0
    2.9773    0.4364   -0.1403 N   0  0  0  0  0  0  0  0  0  0  0  0
    3.8568   -0.0362   -0.3440 H   0  0  0  0  0  0  0  0  0  0  0  0
    2.9381    1.2284   -0.7888 H   0  0  0  0  0  0  0  0  0  0  0  0
    0.5206    0.1033    0.1235 C   0  0  0  0  0  0  0  0  0  0  0  0
    0.0230    1.6726   -0.7006 S   0  0  0  0  0  0  0  0  0  0  0  0
    0.1786    2.9039    0.6470 C   0  0  0  0  0  0  0  0  0  0  0  0
    1.8962    3.2663    1.1498 P   0  0  0  0  0  0  0  0  0  0  0  0
    2.8012    3.6842    0.0465 O   0  0  0  0  0  0  0  0  0  0  0  0
    1.6213    4.3709    2.3065 O   0  0  0  0  0  0  0  0  0  0  0  0
    2.4106    4.9152    2.4745 H   0  0  0  0  0  0  0  0  0  0  0  0
    2.3892    1.9850    1.9807 O   0  0  0  0  0  0  0  0  0  0  0  0
    2.7839    1.3117    1.3310 H   0  0  0  0  0  0  0  0  0  0  0  0
   -0.2525    3.8221    0.2387 H   0  0  0  0  0  0  0  0  0  0  0  0
   -0.4158    2.6085    1.5158 H   0  0  0  0  0  0  0  0  0  0  0  0
    0.5982    0.2785    1.1978 H   0  0  0  0  0  0  0  0  0  0  0  0
   -0.2743   -0.6224   -0.0523 H   0  0  0  0  0  0  0  0  0  0  0  0
    2.0306   -1.3953    0.1626 H   0  0  0  0  0  0  0  0  0  0  0  0
    0.7073   -1.8271   -3.0962 H   0  0  0  0  0  0  0  0  0  0  0  0
  1  2  1  0  0  0  0
  1 22  1  0  0  0  0
  2  3  2  0  0  0  0
  2  4  1  0  0  0  0
  4  5  1  0  0  0  0
  4  8  1  0  0  0  0
  4 21  1  0  0  0  0
  5  6  1  0  0  0  0
  5  7  1  0  0  0  0
  8  9  1  0  0  0  0
  8 19  1  0  0  0  0
  8 20  1  0  0  0  0
  9 10  1  0  0  0  0
 10 11  1  0  0  0  0
 10 17  1  0  0  0  0
 10 18  1  0  0  0  0
 11 12  2  0  0  0  0
 11 13  1  0  0  0  0
 11 15  1  0  0  0  0
 13 14  1  0  0  0  0
 15 16  1  0  0  0  0
M  END
$$$$
