
  -OEChem-12122420533D

 19 18  0     0  0  0  0  0  0999 V2000
   -2.4848   -0.5072    1.8698 C   0  0  0  0  0  0  0  0  0  0  0  0
   -1.5797   -0.4725    2.8530 C   0  0  0  0  0  0  0  0  0  0  0  0
   -0.2283    0.1527    2.7038 C   0  0  0  0  0  0  0  0  0  0  0  0
   -0.1798    1.7468    3.6225 S   0  0  0  0  0  0  0  0  0  0  0  0
   -0.4932    1.4616    5.0328 O   0  0  0  0  0  0  0  0  0  0  0  0
   -0.9570    2.7421    2.8649 O   0  0  0  0  0  0  0  0  0  0  0  0
    1.5962    2.2166    3.5072 C   0  0  0  0  0  0  0  0  0  0  0  0
    1.7875    3.5968    4.0528 C   0  0  0  0  0  0  0  0  0  0  0  0
    2.3645    3.8461    5.2327 C   0  0  0  0  0  0  0  0  0  0  0  0
    2.4715    4.8621    5.6025 H   0  0  0  0  0  0  0  0  0  0  0  0
    2.7409    3.0462    5.8666 H   0  0  0  0  0  0  0  0  0  0  0  0
    1.3954    4.4108    3.4477 H   0  0  0  0  0  0  0  0  0  0  0  0
    2.1503    1.4652    4.0742 H   0  0  0  0  0  0  0  0  0  0  0  0
    1.8510    2.1543    2.4443 H   0  0  0  0  0  0  0  0  0  0  0  0
    0.0072    0.3900    1.6639 H   0  0  0  0  0  0  0  0  0  0  0  0
    0.5627   -0.4656    3.1405 H   0  0  0  0  0  0  0  0  0  0  0  0
   -1.8149   -0.8789    3.8338 H   0  0  0  0  0  0  0  0  0  0  0  0
   -3.4624   -0.9565    2.0214 H   0  0  0  0  0  0  0  0  0  0  0  0
   -2.2811   -0.0841    0.8886 H   0  0  0  0  0  0  0  0  0  0  0  0
  1  2  2  0  0  0  0
  1 18  1  0  0  0  0
  1 19  1  0  0  0  0
  2  3  1  0  0  0  0
  2 17  1  0  0  0  0
  3  4  1  0  0  0  0
  3 15  1  0  0  0  0
  3 16  1  0  0  0  0
  4  5  2  0  0  0  0
  4  6  2  0  0  0  0
  4  7  1  0  0  0  0
  7  8  1  0  0  0  0
  7 13  1  0  0  0  0
  7 14  1  0  0  0  0
  8  9  2  0  0  0  0
  8 12  1  0  0  0  0
  9 10  1  0  0  0  0
  9 11  1  0  0  0  0
M  END
$$$$
