19
0 1 C6H10O2S
C                    -2.038489688058    -1.394111037842     3.503659842982
C                    -1.572396306518    -0.409996141537     2.728135326356
C                    -0.166396064363     0.097102901594     2.800522942825
S                    -0.145756221650     1.748597135577     3.612887771420
O                    -0.376832674538     1.558792642128     5.054830840996
O                    -1.005758000800     2.647062805880     2.824352575804
C                     1.603034264696     2.277784088399     3.390154241768
C                     1.848753458469     3.537729060279     4.159168862682
C                     1.986340237049     4.735299623289     3.581182510434
H                     2.148100275121     5.630739759933     4.174933432795
H                     1.935606631418     4.859461789880     2.501703445971
H                     1.877278819512     3.441409827799     5.241961999970
H                     2.213608381472     1.445757955713     3.755574955752
H                     1.749136383030     2.411520885809     2.315899643362
H                     0.268698116176     0.249597930433     1.807524753976
H                     0.477874432615    -0.548987832694     3.401141124851
H                    -2.228387681829     0.093143946961     2.021689354099
H                    -3.071105887682    -1.724548407357     3.432706788889
H                    -1.407719628872    -1.894343001229     4.235207722527
