
  -OEChem-12122420533D

 22 21  0     1  0  0  0  0  0999 V2000
    3.4765   -1.0182   -2.0508 O   0  0  0  0  0  0  0  0  0  0  0  0
    2.9834   -1.4116   -0.8497 C   0  0  0  0  0  0  0  0  0  0  0  0
    3.6648   -1.9406    0.0062 O   0  0  0  0  0  0  0  0  0  0  0  0
    1.4844   -1.1416   -0.7094 C   0  0  1  0  0  0  0  0  0  0  0  0
    0.7423   -2.2998   -0.2108 N   0  0  0  0  0  0  0  0  0  0  0  0
    0.7281   -3.0371   -0.9138 H   0  0  0  0  0  0  0  0  0  0  0  0
    1.2289   -2.6796    0.6015 H   0  0  0  0  0  0  0  0  0  0  0  0
    1.2603    0.0303    0.2617 C   0  0  0  0  0  0  0  0  0  0  0  0
    2.2221    1.5371   -0.1131 S   0  0  0  0  0  0  0  0  0  0  0  0
    1.5386    1.9377   -1.7665 C   0  0  0  0  0  0  0  0  0  0  0  0
    1.4120    3.7378   -1.9784 P   0  0  0  0  0  0  0  0  0  0  0  0
    0.2979    4.4362   -1.2929 O   0  0  0  0  0  0  0  0  0  0  0  0
    2.8823    4.3095   -1.5765 O   0  0  0  0  0  0  0  0  0  0  0  0
    2.8354    4.8244   -0.7523 H   0  0  0  0  0  0  0  0  0  0  0  0
    1.4258    3.8225   -3.5973 O   0  0  0  0  0  0  0  0  0  0  0  0
    1.0867    4.6770   -3.9182 H   0  0  0  0  0  0  0  0  0  0  0  0
    2.1527    1.5108   -2.5630 H   0  0  0  0  0  0  0  0  0  0  0  0
    0.5202    1.5490   -1.8525 H   0  0  0  0  0  0  0  0  0  0  0  0
    1.5872   -0.2624    1.2643 H   0  0  0  0  0  0  0  0  0  0  0  0
    0.1920    0.2561    0.3036 H   0  0  0  0  0  0  0  0  0  0  0  0
    1.0902   -0.8763   -1.6933 H   0  0  0  0  0  0  0  0  0  0  0  0
    4.4383   -1.1925   -2.0310 H   0  0  0  0  0  0  0  0  0  0  0  0
  1  2  1  0  0  0  0
  1 22  1  0  0  0  0
  2  3  2  0  0  0  0
  2  4  1  0  0  0  0
  4  5  1  0  0  0  0
  4  8  1  0  0  0  0
  4 21  1  0  0  0  0
  5  6  1  0  0  0  0
  5  7  1  0  0  0  0
  8  9  1  0  0  0  0
  8 19  1  0  0  0  0
  8 20  1  0  0  0  0
  9 10  1  0  0  0  0
 10 11  1  0  0  0  0
 10 17  1  0  0  0  0
 10 18  1  0  0  0  0
 11 12  2  0  0  0  0
 11 13  1  0  0  0  0
 11 15  1  0  0  0  0
 13 14  1  0  0  0  0
 15 16  1  0  0  0  0
M  END
$$$$
