19
0 1 C6H10O2S
C                    -2.001170126747    -1.349094255329     3.667507617444
C                    -1.477524093246    -0.461643884925     2.815860832061
C                    -0.103002386101     0.110047248222     2.969911821820
S                    -0.218392212734     1.852601238262     3.542768769405
O                    -0.609222418260     1.850290088545     4.961394401916
O                    -1.005821867198     2.607797047208     2.551214202445
C                     1.519456640472     2.454954613530     3.432904875794
C                     2.492317175781     1.586422778207     4.169345940588
C                     2.745923099699     1.705804596007     5.477572882416
H                     3.445701338559     1.042542463407     5.978614534560
H                     2.251421977335     2.459340788800     6.085780629833
H                     2.989805498207     0.808756019939     3.591771203542
H                     1.736032145507     2.540837275474     2.365567385547
H                     1.443162304453     3.457708274217     3.861897013374
H                     0.437882288260     0.148572407513     2.018559519611
H                     0.487624131130    -0.417661934905     3.721042449099
H                    -2.062313426003    -0.090217226562     1.977609744425
H                    -3.009269271029    -1.731162699149     3.532017513058
H                    -1.444044728618    -1.714461220784     4.527358522880
