22
0 1 C4H10NO5PS
O                     3.676721629869    -0.185567567319    -1.707484267975
C                     3.068943420886    -0.179155495306    -0.509824427477
O                     3.609773870458     0.279748590485     0.489304496320
C                     1.715058349640    -0.891571877693    -0.515425355494
N                     1.778438406881    -2.163289793652     0.211772417499
H                     2.386627691305    -2.823313266470    -0.269807837830
H                     2.165818652165    -2.012849628715     1.142755328885
C                     0.633094697630    -0.005270737313     0.110096271199
S                     0.478651645767     1.563049237775    -0.840767081852
C                     0.258876523645     2.793459300205     0.494431202179
P                     1.819108416659     3.262949364425     1.316195583314
O                     2.869200540203     3.844270914252     0.444872893841
O                     1.230108658966     4.240665698612     2.471556633038
H                     1.918823135877     4.831650553483     2.823553782804
O                     2.264637220361     1.969990910243     2.173539210083
H                     2.897399737580     1.394572697333     1.679868684268
H                    -0.142812673416     3.688528568293     0.012389313819
H                    -0.472685051006     2.450683719514     1.230655791159
H                     0.887823816054     0.227781753240     1.145639207097
H                    -0.311547997389    -0.552113640143     0.093438656333
H                     1.453935378776    -1.108886860255    -1.554139444036
H                     4.527201685338     0.286912406351    -1.601211804841
