
  -OEChem-12122420533D

 18 17  0     1  0  0  0  0  0999 V2000
    3.4722   -0.2816   -1.9292 O   0  0  0  0  0  0  0  0  0  0  0  0
    2.3713    0.3693   -2.3689 C   0  0  0  0  0  0  0  0  0  0  0  0
    2.4120    1.3022   -3.1471 O   0  0  0  0  0  0  0  0  0  0  0  0
    1.0913   -0.1841   -1.7491 C   0  0  2  0  0  0  0  0  0  0  0  0
   -0.1062    0.2862   -2.4662 N   0  0  0  0  0  0  0  0  0  0  0  0
    0.0615    1.2398   -2.7923 H   0  0  0  0  0  0  0  0  0  0  0  0
   -0.2507   -0.2745   -3.3043 H   0  0  0  0  0  0  0  0  0  0  0  0
    1.0320    0.2214   -0.2580 C   0  0  0  0  0  0  0  0  0  0  0  0
   -0.4257   -0.5482    0.5327 P   0  0  0  0  0  0  0  0  0  0  0  0
   -0.3692   -2.0338    0.5355 O   0  0  0  0  0  0  0  0  0  0  0  0
   -1.6667    0.1643   -0.1916 O   0  0  0  0  0  0  0  0  0  0  0  0
   -1.4372    0.2512   -1.1603 H   0  0  0  0  0  0  0  0  0  0  0  0
   -0.4819    0.1106    2.0141 O   0  0  0  0  0  0  0  0  0  0  0  0
   -0.5188   -0.5892    2.6887 H   0  0  0  0  0  0  0  0  0  0  0  0
    0.9752    1.3101   -0.1537 H   0  0  0  0  0  0  0  0  0  0  0  0
    1.9257   -0.1326    0.2611 H   0  0  0  0  0  0  0  0  0  0  0  0
    1.1276   -1.2762   -1.7971 H   0  0  0  0  0  0  0  0  0  0  0  0
    4.2450    0.1497   -2.3435 H   0  0  0  0  0  0  0  0  0  0  0  0
  1  2  1  0  0  0  0
  1 18  1  0  0  0  0
  2  3  2  0  0  0  0
  2  4  1  0  0  0  0
  4  5  1  0  0  0  0
  4  8  1  0  0  0  0
  4 17  1  0  0  0  0
  5  6  1  0  0  0  0
  5  7  1  0  0  0  0
  8  9  1  0  0  0  0
  8 15  1  0  0  0  0
  8 16  1  0  0  0  0
  9 10  2  0  0  0  0
  9 11  1  0  0  0  0
  9 13  1  0  0  0  0
 11 12  1  0  0  0  0
 13 14  1  0  0  0  0
M  END
$$$$
