40
0 1 BrC14H17N4O2S2
N                    -0.865113906177    -5.378380651608    11.932912286185
S                     0.122839530487    -4.185242635667    11.834513170305
O                     1.386864268157    -4.086307304520    12.609064429496
C                    -0.712587063204    -2.595880457975    12.069800355051
C                    -2.070389628048    -2.483896283575    11.754634695871
H                    -2.613699045307    -3.350613226277    11.388642327621
C                    -2.713881334925    -1.265336991317    11.933357863980
H                    -3.770441427471    -1.174708551728    11.689639526282
C                    -2.013885101513    -0.146776739901    12.433654434612
N                    -2.752180699592     1.032926239260    12.587399745155
C                    -2.388148996409     2.301201910381    12.977691444076
N                    -1.115349765030     2.583594603592    13.288280302478
C                    -0.871556008996     3.856195885652    13.629184728427
H                     0.156271031035     4.104716744666    13.885378434742
C                    -1.857818740348     4.833025054246    13.659922277757
Br                   -1.425389432740     6.626951102222    14.137717683046
C                    -3.171912087815     4.432089310281    13.326620905926
S                    -4.484426576865     5.622948038264    13.362384696821
C                    -5.937042806815     4.623843075611    12.851606850763
C                    -6.312178182492     4.823458339918    11.375897068043
O                    -5.275018811303     4.392136727214    10.495709686606
H                    -4.476690074838     4.907538248567    10.698890562833
C                    -7.555480504637     4.013237382831    11.025600233448
H                    -7.811628601168     4.162914675318     9.973366709652
H                    -7.371808868137     2.945765545074    11.185418741501
H                    -8.408110919327     4.319464095900    11.639648102273
H                    -6.519385658075     5.891794112389    11.209636785261
H                    -5.710594342016     3.576038939697    13.056058276181
H                    -6.754955873252     4.950842857048    13.500054159340
N                    -3.420948508310     3.170524209453    12.997197635742
H                    -3.732452324694     0.981045075805    12.337042699429
C                    -0.650258512832    -0.275267015147    12.758562727791
H                    -0.111229054395     0.575529488294    13.149461324180
C                    -0.010048297340    -1.500726725315    12.574450710017
H                     1.036770563526    -1.617425387110    12.837727241625
C                     0.513103161848    -4.169127998953    10.076589566854
H                     1.162903259046    -3.313428753324     9.890466564551
H                     1.032045344416    -5.106622917467     9.870543730500
H                    -0.409848072462    -4.103140082334     9.501154975910
H                    -1.147049120398    -5.519126380006    12.906317037921
