18
0 1 C3H8NO5P
O                     3.059579825939    -0.637759257156    -3.259499107844
C                     2.620199188282     0.157329956968    -2.252355393017
O                     3.270961430193     1.091336407015    -1.820667510307
C                     1.191679603548    -0.196484805389    -1.838599452690
N                     0.228827126944     0.503490975323    -2.706334167212
H                     0.406267230821     1.507528673929    -2.681670556241
H                     0.344242835634     0.199057395107    -3.672015233593
C                     0.929866479765     0.190521121103    -0.381076384720
P                     1.766415691158    -0.840932243351     0.849835607586
O                     1.795095884161    -0.316457396627     2.236121135795
O                     3.244434501595    -1.182728057728     0.242012111617
H                     3.912520555437    -0.558291567115     0.574855332403
O                     1.021138658139    -2.259044187668     0.603334438065
H                     1.276913970492    -2.931353297906     1.258972132495
H                    -0.143036007366     0.120298373895    -0.183172050879
H                     1.245765467432     1.221232235142    -0.194920705724
H                     1.041762281570    -1.269218686078    -1.978682418382
H                     3.943182151961    -0.306655590031    -3.512995793711
