
  -OEChem-12102412493D

 20 19  0     0  0  0  0  0  0999 V2000
   -1.9680    3.2388    1.6020 O   0  0  0  0  0  0  0  0  0  0  0  0
   -0.8611    2.4744    0.6407 S   0  0  0  0  0  0  0  0  0  0  0  0
   -0.9005    3.1442   -0.6618 O   0  0  0  0  0  0  0  0  0  0  0  0
    0.3802    2.3613    1.3924 O   0  0  0  0  0  0  0  0  0  0  0  0
   -1.6515    0.8509    0.5133 C   0  0  0  0  0  0  0  0  0  0  0  0
   -0.8659   -0.0936   -0.4030 C   0  0  0  0  0  0  0  0  0  0  0  0
    0.4195   -0.6551    0.2223 C   0  0  0  0  0  0  0  0  0  0  0  0
    1.1149   -1.5971   -0.7606 C   0  0  0  0  0  0  0  0  0  0  0  0
    2.1952   -2.3502   -0.0736 N   0  0  0  0  0  0  0  0  0  0  0  0
    2.8272   -3.5661   -1.2381 Cl  0  0  0  0  0  0  0  0  0  0  0  0
    3.5283   -1.2133    0.3120 Cl  0  0  0  0  0  0  0  0  0  0  0  0
    0.4191   -2.3724   -1.0970 H   0  0  0  0  0  0  0  0  0  0  0  0
    1.4883   -1.0610   -1.6416 H   0  0  0  0  0  0  0  0  0  0  0  0
    1.0901    0.1563    0.5089 H   0  0  0  0  0  0  0  0  0  0  0  0
    0.1762   -1.2111    1.1347 H   0  0  0  0  0  0  0  0  0  0  0  0
   -1.5433   -0.9195   -0.6506 H   0  0  0  0  0  0  0  0  0  0  0  0
   -0.6486    0.4194   -1.3467 H   0  0  0  0  0  0  0  0  0  0  0  0
   -1.7370    0.4725    1.5350 H   0  0  0  0  0  0  0  0  0  0  0  0
   -2.6486    1.0528    0.1164 H   0  0  0  0  0  0  0  0  0  0  0  0
   -2.2950    4.0168    1.1095 H   0  0  0  0  0  0  0  0  0  0  0  0
  1  2  1  0  0  0  0
  1 20  1  0  0  0  0
  2  3  2  0  0  0  0
  2  4  2  0  0  0  0
  2  5  1  0  0  0  0
  5  6  1  0  0  0  0
  5 18  1  0  0  0  0
  5 19  1  0  0  0  0
  6  7  1  0  0  0  0
  6 16  1  0  0  0  0
  6 17  1  0  0  0  0
  7  8  1  0  0  0  0
  7 14  1  0  0  0  0
  7 15  1  0  0  0  0
  8  9  1  0  0  0  0
  8 12  1  0  0  0  0
  8 13  1  0  0  0  0
  9 10  1  0  0  0  0
  9 11  1  0  0  0  0
M  END
$$$$
