
  -OEChem-12102412493D

 19 18  0     0  0  0  0  0  0999 V2000
   -0.0557   -1.5479    4.3958 C   0  0  0  0  0  0  0  0  0  0  0  0
    0.4750   -0.8977    3.3536 C   0  0  0  0  0  0  0  0  0  0  0  0
   -0.2681    0.1273    2.5531 C   0  0  0  0  0  0  0  0  0  0  0  0
   -0.2681    1.8018    3.3231 S   0  0  0  0  0  0  0  0  0  0  0  0
   -0.8908    1.6924    4.6538 O   0  0  0  0  0  0  0  0  0  0  0  0
   -0.8064    2.7365    2.3206 O   0  0  0  0  0  0  0  0  0  0  0  0
    1.5164    2.1650    3.5673 C   0  0  0  0  0  0  0  0  0  0  0  0
    1.6706    3.4569    4.3065 C   0  0  0  0  0  0  0  0  0  0  0  0
    2.0787    4.5908    3.7280 C   0  0  0  0  0  0  0  0  0  0  0  0
    2.1652    5.5127    4.2964 H   0  0  0  0  0  0  0  0  0  0  0  0
    2.3321    4.6353    2.6710 H   0  0  0  0  0  0  0  0  0  0  0  0
    1.3983    3.4416    5.3592 H   0  0  0  0  0  0  0  0  0  0  0  0
    1.9101    1.3159    4.1335 H   0  0  0  0  0  0  0  0  0  0  0  0
    1.9614    2.1993    2.5699 H   0  0  0  0  0  0  0  0  0  0  0  0
   -1.3377   -0.0890    2.4831 H   0  0  0  0  0  0  0  0  0  0  0  0
    0.1302    0.2634    1.5450 H   0  0  0  0  0  0  0  0  0  0  0  0
    1.5072   -1.0906    3.0657 H   0  0  0  0  0  0  0  0  0  0  0  0
    0.5242   -2.2712    4.9625 H   0  0  0  0  0  0  0  0  0  0  0  0
   -1.0769   -1.3637    4.7203 H   0  0  0  0  0  0  0  0  0  0  0  0
  1  2  2  0  0  0  0
  1 18  1  0  0  0  0
  1 19  1  0  0  0  0
  2  3  1  0  0  0  0
  2 17  1  0  0  0  0
  3  4  1  0  0  0  0
  3 15  1  0  0  0  0
  3 16  1  0  0  0  0
  4  5  2  0  0  0  0
  4  6  2  0  0  0  0
  4  7  1  0  0  0  0
  7  8  1  0  0  0  0
  7 13  1  0  0  0  0
  7 14  1  0  0  0  0
  8  9  2  0  0  0  0
  8 12  1  0  0  0  0
  9 10  1  0  0  0  0
  9 11  1  0  0  0  0
M  END
$$$$
