22
0 1 C4H10NO5PS
O                     2.924242500305    -0.078230706560    -2.264690545548
C                     2.856942049575    -0.710972485325    -1.069144577504
O                     3.813296367617    -0.893749870548    -0.343230180957
C                     1.428663949569    -1.161926175661    -0.761288781808
N                     1.339923323220    -2.538909599314    -0.276703852985
H                     1.551803052566    -3.189751593522    -1.031320308136
H                     2.050897538955    -2.681351584094     0.441208442201
C                     0.800771085087    -0.245187264841     0.311265628429
S                     1.220913257703     1.537652388277     0.276417054812
C                     0.760987605890     2.038130498443    -1.427749277344
P                     1.876321294516     3.367428525368    -1.970757947318
O                     1.780636624889     4.657436710766    -1.246579950536
O                     3.386690507043     2.741818997049    -1.957316269364
H                     3.862561252484     3.047491201194    -1.164777615310
O                     1.543348054890     3.385762637139    -3.554937680915
H                     1.816772178650     4.221418010013    -3.973753238015
H                     0.877955274920     1.209083114860    -2.125450305148
H                    -0.263482545588     2.417112436805    -1.475397811587
H                     1.171450645772    -0.553950297822     1.293310775077
H                    -0.281755166967    -0.389153327613     0.305619836769
H                     0.846774883642    -1.087130797592    -1.682948839599
H                     3.793654187991     0.362724873602    -2.335215479402
