
  -OEChem-12122420533D

 22 21  0     1  0  0  0  0  0999 V2000
   -0.4429   -0.9198   -1.9728 O   0  0  0  0  0  0  0  0  0  0  0  0
   -0.4034    0.4294   -1.8364 C   0  0  0  0  0  0  0  0  0  0  0  0
   -1.3463    1.1485   -2.1064 O   0  0  0  0  0  0  0  0  0  0  0  0
    0.9344    0.9282   -1.2890 C   0  0  1  0  0  0  0  0  0  0  0  0
    1.3447    2.2031   -1.8735 N   0  0  0  0  0  0  0  0  0  0  0  0
    1.5495    2.0773   -2.8639 H   0  0  0  0  0  0  0  0  0  0  0  0
    0.5584    2.8519   -1.8282 H   0  0  0  0  0  0  0  0  0  0  0  0
    0.8310    1.0954    0.2482 C   0  0  0  0  0  0  0  0  0  0  0  0
    0.4742   -0.1685    0.9748 C   0  0  0  0  0  0  0  0  0  0  0  0
    1.2865   -0.8030    1.8306 C   0  0  0  0  0  0  0  0  0  0  0  0
    0.7625   -2.3256    2.6021 P   0  0  0  0  0  0  0  0  0  0  0  0
   -0.5978   -2.8060    2.2497 O   0  0  0  0  0  0  0  0  0  0  0  0
    1.0769   -2.0114    4.1585 O   0  0  0  0  0  0  0  0  0  0  0  0
    0.8533   -2.7562    4.7442 H   0  0  0  0  0  0  0  0  0  0  0  0
    1.9253   -3.4301    2.2760 O   0  0  0  0  0  0  0  0  0  0  0  0
    1.6121   -4.0531    1.5975 H   0  0  0  0  0  0  0  0  0  0  0  0
    2.2815   -0.4291    2.0654 H   0  0  0  0  0  0  0  0  0  0  0  0
   -0.5092   -0.5980    0.7875 H   0  0  0  0  0  0  0  0  0  0  0  0
    0.0677    1.8581    0.4512 H   0  0  0  0  0  0  0  0  0  0  0  0
    1.7919    1.4874    0.5898 H   0  0  0  0  0  0  0  0  0  0  0  0
    1.6978    0.1760   -1.5048 H   0  0  0  0  0  0  0  0  0  0  0  0
   -1.3435   -1.1495   -2.2763 H   0  0  0  0  0  0  0  0  0  0  0  0
  1  2  1  0  0  0  0
  1 22  1  0  0  0  0
  2  3  2  0  0  0  0
  2  4  1  0  0  0  0
  4  5  1  0  0  0  0
  4  8  1  0  0  0  0
  4 21  1  0  0  0  0
  5  6  1  0  0  0  0
  5  7  1  0  0  0  0
  8  9  1  0  0  0  0
  8 19  1  0  0  0  0
  8 20  1  0  0  0  0
  9 10  2  0  0  0  0
  9 18  1  0  0  0  0
 10 11  1  0  0  0  0
 10 17  1  0  0  0  0
 11 12  2  0  0  0  0
 11 13  1  0  0  0  0
 11 15  1  0  0  0  0
 13 14  1  0  0  0  0
 15 16  1  0  0  0  0
M  END
$$$$
