19
0 1 C4H11NO2S
N                    -0.044083171036    -1.708748848047     1.267153101045
C                    -0.523089529580    -0.358533721301     0.997676469940
C                    -0.024795280845     0.348979940064    -0.288532477090
C                    -0.219268249731    -0.472448567003    -1.564528727296
H                     0.075918249776     0.096404287132    -2.448000214253
H                     0.369427966622    -1.392995770412    -1.537615192411
H                    -1.276790195942    -0.741493114332    -1.657390548718
S                     1.752600810976     0.796534719885    -0.177500080822
O                     2.139825763916     1.457290526336    -1.436140562084
O                     2.502580652450    -0.387112825581     0.294840682199
C                     1.830644453392     2.046681166067     1.130378593608
H                     2.872552189903     2.371682885484     1.153174251360
H                     1.181745698446     2.883551265229     0.867370434223
H                     1.554032486739     1.604699474251     2.087536678917
H                    -0.533004876437     1.315650546662    -0.388369007611
H                    -0.301648340636     0.266700107074     1.869782145888
H                    -1.616786405628    -0.389247838663     0.928174329799
H                    -0.382165653674    -2.356155873604     0.558831269660
H                     0.974602173928    -1.729599393250     1.230746153460
