
  -OEChem-12122420533D

 22 21  0     1  0  0  0  0  0999 V2000
    3.1333   -2.2231   -0.2312 O   0  0  0  0  0  0  0  0  0  0  0  0
    2.4901   -1.4729   -1.1663 C   0  0  0  0  0  0  0  0  0  0  0  0
    2.8106   -1.4768   -2.3396 O   0  0  0  0  0  0  0  0  0  0  0  0
    1.3324   -0.6786   -0.5661 C   0  0  1  0  0  0  0  0  0  0  0  0
    0.3783   -1.4948    0.1886 N   0  0  0  0  0  0  0  0  0  0  0  0
   -0.1453   -2.1007   -0.4400 H   0  0  0  0  0  0  0  0  0  0  0  0
    0.8728   -2.0924    0.8488 H   0  0  0  0  0  0  0  0  0  0  0  0
    1.8397    0.4436    0.3507 C   0  0  0  0  0  0  0  0  0  0  0  0
    3.2500    1.4263   -0.2975 S   0  0  0  0  0  0  0  0  0  0  0  0
    2.7119    1.8775   -1.9889 C   0  0  0  0  0  0  0  0  0  0  0  0
    1.2577    2.9568   -1.9896 P   0  0  0  0  0  0  0  0  0  0  0  0
    0.0327    2.3900   -1.3675 O   0  0  0  0  0  0  0  0  0  0  0  0
    1.7435    4.3620   -1.3299 O   0  0  0  0  0  0  0  0  0  0  0  0
    1.5432    4.3926   -0.3787 H   0  0  0  0  0  0  0  0  0  0  0  0
    1.1658    3.3547   -3.5550 O   0  0  0  0  0  0  0  0  0  0  0  0
    0.3129    3.7646   -3.7843 H   0  0  0  0  0  0  0  0  0  0  0  0
    3.5533    2.4194   -2.4290 H   0  0  0  0  0  0  0  0  0  0  0  0
    2.5242    0.9910   -2.5997 H   0  0  0  0  0  0  0  0  0  0  0  0
    2.2374    0.0176    1.2768 H   0  0  0  0  0  0  0  0  0  0  0  0
    0.9923    1.0869    0.5870 H   0  0  0  0  0  0  0  0  0  0  0  0
    0.7993   -0.2264   -1.4035 H   0  0  0  0  0  0  0  0  0  0  0  0
    3.8621   -2.6800   -0.6933 H   0  0  0  0  0  0  0  0  0  0  0  0
  1  2  1  0  0  0  0
  1 22  1  0  0  0  0
  2  3  2  0  0  0  0
  2  4  1  0  0  0  0
  4  5  1  0  0  0  0
  4  8  1  0  0  0  0
  4 21  1  0  0  0  0
  5  6  1  0  0  0  0
  5  7  1  0  0  0  0
  8  9  1  0  0  0  0
  8 19  1  0  0  0  0
  8 20  1  0  0  0  0
  9 10  1  0  0  0  0
 10 11  1  0  0  0  0
 10 17  1  0  0  0  0
 10 18  1  0  0  0  0
 11 12  2  0  0  0  0
 11 13  1  0  0  0  0
 11 15  1  0  0  0  0
 13 14  1  0  0  0  0
 15 16  1  0  0  0  0
M  END
$$$$
