40
0 1 BrC14H17N4O2S2
N                     0.500438818758    -5.290267565930    12.358322148053
S                     0.594300499353    -4.155378329279    11.304346313583
O                     1.872630468684    -3.626857007303    10.761645132610
C                    -0.358905055533    -2.694962397668    11.793855596191
C                    -1.478746360308    -2.849913808910    12.617363325187
H                    -1.755996583471    -3.838542634448    12.972612888051
C                    -2.211712921621    -1.730417204878    12.992778111723
H                    -3.079750759433    -1.847484814316    13.638104285485
C                    -1.833961389067    -0.441934769673    12.557880409390
N                    -2.641391513170     0.623000473000    12.971483025913
C                    -2.503075549561     1.987906437548    12.845168780275
N                    -3.541415647402     2.686116226906    13.351956016318
C                    -3.451933373901     4.012652679056    13.252153596560
H                    -4.279280241226     4.594606939615    13.653185783072
C                    -2.358584453036     4.652085580851    12.669306873344
Br                   -2.299377487279     6.553782028599    12.560121326708
C                    -1.321705402890     3.835687183636    12.182275346605
S                     0.105752710569     4.559491480763    11.440296341758
C                     1.169655814260     3.085829418052    11.170777355309
C                     2.632678377558     3.534101550500    11.056181818378
O                     3.120493382908     4.040853649176    12.300554068050
H                     2.535509064224     4.761229687620    12.589731617451
C                     3.521275104554     2.353391732319    10.680489848819
H                     4.565596074357     2.674502766254    10.646758865720
H                     3.431767615759     1.555596046643    11.424629558301
H                     3.246173954712     1.954835624186     9.699232239571
H                     2.718271701279     4.308365937433    10.277768772072
H                     1.053295942298     2.416339277150    12.024104897473
H                     0.841257047031     2.575876395221    10.261769649452
N                    -1.409319474458     2.503524037831    12.268216016955
H                    -3.489928101831     0.377006985511    13.467748414514
C                    -0.699092123564    -0.299735005178    11.737338697493
H                    -0.400797030742     0.683087217036    11.406954192782
C                     0.030547601169    -1.426885787138    11.361338159411
H                     0.914907423202    -1.327565167356    10.739307271356
C                    -0.382916418550    -4.825134392314     9.948248011571
H                    -0.427280794356    -4.066025328479     9.166636692290
H                     0.145992456940    -5.714059865360     9.600813708179
H                    -1.377168154126    -5.084143501309    10.311202659210
H                     1.045756071939    -5.044249148903    13.188294702737
