
  -OEChem-12102412493D

 18 17  0     1  0  0  0  0  0999 V2000
    3.0901   -1.2465   -1.8911 O   0  0  0  0  0  0  0  0  0  0  0  0
    2.4495   -0.0855   -2.2207 C   0  0  0  0  0  0  0  0  0  0  0  0
    3.0070    0.8390   -2.7689 O   0  0  0  0  0  0  0  0  0  0  0  0
    0.9764   -0.1045   -1.8017 C   0  0  2  0  0  0  0  0  0  0  0  0
    0.1315    0.7360   -2.6430 N   0  0  0  0  0  0  0  0  0  0  0  0
    0.5643    1.6557   -2.7311 H   0  0  0  0  0  0  0  0  0  0  0  0
    0.0960    0.3514   -3.5861 H   0  0  0  0  0  0  0  0  0  0  0  0
    0.8325    0.3636   -0.3360 C   0  0  0  0  0  0  0  0  0  0  0  0
    1.8337   -0.5486    0.8783 P   0  0  0  0  0  0  0  0  0  0  0  0
    3.2539   -0.1341    1.0090 O   0  0  0  0  0  0  0  0  0  0  0  0
    1.6246   -2.1228    0.5222 O   0  0  0  0  0  0  0  0  0  0  0  0
    2.3028   -2.4032   -0.1206 H   0  0  0  0  0  0  0  0  0  0  0  0
    0.9194   -0.3941    2.2043 O   0  0  0  0  0  0  0  0  0  0  0  0
    1.4381   -0.5412    3.0149 H   0  0  0  0  0  0  0  0  0  0  0  0
   -0.2209    0.2715   -0.0612 H   0  0  0  0  0  0  0  0  0  0  0  0
    1.1146    1.4180   -0.2513 H   0  0  0  0  0  0  0  0  0  0  0  0
    0.6198   -1.1361   -1.8654 H   0  0  0  0  0  0  0  0  0  0  0  0
    4.0444   -1.0989   -2.0446 H   0  0  0  0  0  0  0  0  0  0  0  0
  1  2  1  0  0  0  0
  1 18  1  0  0  0  0
  2  3  2  0  0  0  0
  2  4  1  0  0  0  0
  4  5  1  0  0  0  0
  4  8  1  0  0  0  0
  4 17  1  0  0  0  0
  5  6  1  0  0  0  0
  5  7  1  0  0  0  0
  8  9  1  0  0  0  0
  8 15  1  0  0  0  0
  8 16  1  0  0  0  0
  9 10  2  0  0  0  0
  9 11  1  0  0  0  0
  9 13  1  0  0  0  0
 11 12  1  0  0  0  0
 13 14  1  0  0  0  0
M  END
$$$$
