
  -OEChem-12102412493D

 19 18  0     1  0  0  0  0  0999 V2000
   -0.6327    0.5486    2.2147 N   0  0  0  0  0  0  0  0  0  0  0  0
   -0.4573   -0.2954    1.0395 C   0  0  0  0  0  0  0  0  0  0  0  0
   -0.0376    0.3885   -0.2906 C   0  0  2  0  0  0  0  0  0  0  0  0
   -0.2338   -0.5260   -1.5000 C   0  0  0  0  0  0  0  0  0  0  0  0
    0.0246   -0.0375   -2.4438 H   0  0  0  0  0  0  0  0  0  0  0  0
    0.3743   -1.4289   -1.4015 H   0  0  0  0  0  0  0  0  0  0  0  0
   -1.2864   -0.8205   -1.5601 H   0  0  0  0  0  0  0  0  0  0  0  0
    1.7266    0.8801   -0.1511 S   0  0  0  0  0  0  0  0  0  0  0  0
    2.5526   -0.3371   -0.2430 O   0  0  0  0  0  0  0  0  0  0  0  0
    1.8628    1.7726    1.0185 O   0  0  0  0  0  0  0  0  0  0  0  0
    2.0543    1.8874   -1.6197 C   0  0  0  0  0  0  0  0  0  0  0  0
    3.0690    2.2676   -1.4860 H   0  0  0  0  0  0  0  0  0  0  0  0
    1.9985    1.2673   -2.5143 H   0  0  0  0  0  0  0  0  0  0  0  0
    1.3444    2.7154   -1.6539 H   0  0  0  0  0  0  0  0  0  0  0  0
   -0.5848    1.3311   -0.4075 H   0  0  0  0  0  0  0  0  0  0  0  0
   -1.4045   -0.8079    0.8361 H   0  0  0  0  0  0  0  0  0  0  0  0
    0.2694   -1.0807    1.2733 H   0  0  0  0  0  0  0  0  0  0  0  0
    0.2325    1.0475    2.4156 H   0  0  0  0  0  0  0  0  0  0  0  0
   -1.3459    1.2545    2.0408 H   0  0  0  0  0  0  0  0  0  0  0  0
  1  2  1  0  0  0  0
  1 18  1  0  0  0  0
  1 19  1  0  0  0  0
  2  3  1  0  0  0  0
  2 16  1  0  0  0  0
  2 17  1  0  0  0  0
  3  4  1  0  0  0  0
  3  8  1  0  0  0  0
  3 15  1  0  0  0  0
  4  5  1  0  0  0  0
  4  6  1  0  0  0  0
  4  7  1  0  0  0  0
  8  9  2  0  0  0  0
  8 10  2  0  0  0  0
  8 11  1  0  0  0  0
 11 12  1  0  0  0  0
 11 13  1  0  0  0  0
 11 14  1  0  0  0  0
M  END
$$$$
