22
0 1 C4H10NO5PS
O                     2.153665319631    -2.293348290854     1.316187793825
C                     1.260483795991    -2.134519206598     0.305683385660
O                     0.182318832004    -2.694739661688     0.281926477505
C                     1.760535479285    -1.147656859258    -0.751985708858
N                     1.136394846359    -1.328873446882    -2.053823783094
H                     1.501520385295    -2.165643282837    -2.504071196483
H                     0.137693524207    -1.489270864220    -1.921522733417
C                     1.491576880918     0.277096481308    -0.220307955947
S                     2.408639854570     1.573824841565    -1.128741292860
C                     3.997680811112     1.491039866593    -0.224892477420
P                     4.055043774210     2.582780469745     1.228049297058
O                     4.127934553538     4.045008965597     0.990921051878
O                     2.774862139734     2.147761538205     2.143089310902
H                     2.124088377636     2.870812080605     2.165125345351
O                     5.302279830403     1.921262997367     2.028290654590
H                     5.673642585326     2.530965749781     2.690565411307
H                     4.227344535476     0.464423599895     0.073803996315
H                     4.785454150299     1.821686975495    -0.906710367665
H                     1.728228766065     0.364362729987     0.841814985023
H                     0.430253039870     0.509613058224    -0.348073163163
H                     2.841115893817    -1.288049727000    -0.848484469998
H                     1.743110869678    -2.895200895143     1.967440112042
