22
0 1 C4H10NO5PS
O                     3.133312378039    -2.223132370032    -0.231221770242
C                     2.490112136678    -1.472938211788    -1.166265497582
O                     2.810564159774    -1.476836453919    -2.339604099472
C                     1.332401243799    -0.678622480117    -0.566058565625
N                     0.378320398056    -1.494819938162     0.188567684597
H                    -0.145320608262    -2.100736395883    -0.439978560279
H                     0.872849381600    -2.092402389284     0.848828720940
C                     1.839699342230     0.443640620038     0.350650880608
S                     3.249991735449     1.426313185646    -0.297502565280
C                     2.711897756485     1.877450077132    -1.988867814954
P                     1.257675023900     2.956766271433    -1.989621014045
O                     0.032711364450     2.390002857639    -1.367494747089
O                     1.743546154976     4.361954655203    -1.329904008916
H                     1.543184777262     4.392618961115    -0.378654531130
O                     1.165820385463     3.354747899495    -3.554958038363
H                     0.312855694820     3.764613381887    -3.784345182965
H                     3.553317917099     2.419363863582    -2.429021506430
H                     2.524181126429     0.990989474491    -2.599734826024
H                     2.237381418948     0.017623500861     1.276818628634
H                     0.992306914075     1.086924000430     0.587049850798
H                     0.799331146271    -0.226426525112    -1.403522682080
H                     3.862070297743    -2.679989450203    -0.693282223466
