23   
torsion grid (-165,)
C        1.5730954691   -1.1223041899   -0.1355828002
C        0.9078394818    0.1499802853    0.4216066357
C        0.5485719948   -0.0622062998    1.9065175417
C        1.8915559959    1.3287189479    0.3035384319
C       -0.3590484183    0.4996382833   -0.3980918008
C       -1.5076694216   -0.5171997903   -0.3682652621
C       -2.7082044072   -0.0563212929   -1.2040932147
H        1.8385457589   -0.9981303703   -1.1921992916
H        0.9161598142   -1.9935440385   -0.0531089488
H        2.4935204659   -1.3520686597    0.4141360179
H       -0.1519642885    0.7041400639    2.2586643845
H        0.0673760597   -1.0329254637    2.0666685699
H        1.4429638017   -0.0306757013    2.5384300794
H        1.4630572277    2.2438768012    0.7288197260
H        2.8258145105    1.1173709358    0.8365544567
H        2.1419788071    1.5320752301   -0.7442523518
H       -0.7420250980    1.4662198679   -0.0410731729
H       -0.0610933467    0.6615734409   -1.4437072955
H       -1.8321256826   -0.6838223762    0.6655825762
H       -1.1615904592   -1.4871742994   -0.7438018999
H       -3.5211447271   -0.7901355717   -1.1761762343
H       -3.1052532716    0.8960875211   -0.8337111736
H       -2.4262418736    0.0897919049   -2.2533995720
23   
torsion grid (-150,)
C        1.5218031715   -1.3450865076   -0.2382036610
C        0.9049835304   -0.0525448213    0.3282852728
C        0.5350302167   -0.2569997619    1.8177414962
C        1.9228318333    1.0959286352    0.2068874992
C       -0.3536615043    0.3350860788   -0.4882816043
C       -1.5192123351   -0.6627720763   -0.4720541886
C       -2.7386371899   -0.1405121903   -1.2417174922
H        1.7924865632   -1.2237536700   -1.2939069823
H        0.8316422075   -2.1903629716   -0.1610277372
H        2.4327018797   -1.6140664869    0.3099726004
H       -0.3244815249    0.3583252969    2.1061638941
H        0.2456797751   -1.2950870764    2.0151471550
H        1.3750260959   -0.0208754135    2.4790483211
H        1.5250380846    2.0212385236    0.6400590438
H        2.8539009572    0.8536868423    0.7322949258
H        2.1715317844    1.2969996875   -0.8417397252
H       -0.7179436467    1.3026494357   -0.1148020697
H       -0.0542374924    0.5075339303   -1.5317380044
H       -1.8113680135   -0.8796741821    0.5624026420
H       -1.2025499451   -1.6167048044   -0.9091847376
H       -3.5600813000   -0.8652670528   -1.2304974436
H       -3.1112405147    0.7935319689   -0.8051540649
H       -2.4871768252    0.0625513379   -2.2893246319
23   
torsion grid (-135,)
C        1.7538252055   -1.1146337775   -0.3156002609
C        1.1589265188    0.1986070310    0.2271776186
C        0.8489450877    0.0542329662    1.7440799296
C        2.1734870126    1.3377567405    0.0161801018
C       -0.1301475654    0.5574752209   -0.5544543903
C       -1.2673073208   -0.4718825699   -0.5109434255
C       -2.5381852736    0.0386978794   -1.2009501837
H        1.9601616502   -1.0410685147   -1.3901824265
H        1.0778509727   -1.9603163539   -0.1583054635
H        2.6979272837   -1.3504120322    0.1898049393
H       -0.1362919085    0.4580914644    1.9987405714
H        0.8339805805   -0.9971406947    2.0509121173
H        1.5968635997    0.5608840061    2.3618615654
H        1.7853332648    2.2866341391    0.4048205967
H        3.1162891387    1.1249522159    0.5333563706
H        2.3982149130    1.4781436532   -1.0476213862
H       -0.5075680312    1.5146699919   -0.1676901723
H        0.1353705205    0.7398112157   -1.6053315445
H       -1.4999592998   -0.7305317679    0.5293427971
H       -0.9473212387   -1.4020740849   -0.9941190354
H       -3.3364039488   -0.7112562029   -1.1764746045
H       -2.9159464866    0.9449541090   -0.7132864998
H       -2.3449789684    0.2858697772   -2.2514545753
23   
torsion grid (-120,)
C        1.6284802398   -1.2331304817   -0.2612720472
C        1.0570896912    0.0915968057    0.2798366766
C        0.7470537024   -0.0430792484    1.8004620577
C        2.1084390984    1.1990296859    0.0707158234
C       -0.2172988812    0.4912030618   -0.5043570926
C       -1.3513812709   -0.5416433609   -0.5412405176
C       -2.6190403675    0.0117486375   -1.2034729395
H        1.8093523298   -1.1747645715   -1.3414086571
H        0.9504937337   -2.0725651971   -0.0782478851
H        2.5821608560   -1.4680456730    0.2254513223
H       -0.3109137681    0.1282340408    2.0213825050
H        0.9959762295   -1.0389657453    2.1807852612
H        1.3188555029    0.6799641408    2.3909249196
H        1.7330944930    2.1684765455    0.4190761338
H        3.0277743324    0.9773161448    0.6251409892
H        2.3718482253    1.3019698168   -0.9885237194
H       -0.6032190419    1.4260518646   -0.0736894268
H        0.0676468703    0.7308216339   -1.5384520296
H       -1.5913265513   -0.8750071411    0.4759965858
H       -1.0226775774   -1.4341052250   -1.0858615875
H       -3.4126152190   -0.7424688778   -1.2428587587
H       -3.0069729426    0.8768835962   -0.6531532193
H       -2.4178130231    0.3379364152   -2.2306670378
23   
torsion grid (-105,)
C        1.4964045961   -1.3824639603   -0.1841312016
C        0.8776690706   -0.1025533931    0.4104759813
C        0.4854228750   -0.3436654839    1.8947583259
C        1.9415992242    1.0124768876    0.3505449871
C       -0.3468620902    0.3601417273   -0.4149312452
C       -1.4463728354   -0.6819967994   -0.6582462467
C       -2.6712091604   -0.0798627051   -1.3575370438
H        1.7156651061   -1.2584399518   -1.2515254694
H        0.8305588536   -2.2449628118   -0.0764538747
H        2.4357700562   -1.6254236023    0.3251993594
H       -0.5951128985   -0.4591754820    2.0230757941
H        0.9745819415   -1.2300781147    2.3104657916
H        0.7749167382    0.5100765261    2.5174931331
H        1.5333352503    1.9658394634    0.7060985115
H        2.8059002273    0.7640756924    0.9776348349
H        2.3025146303    1.1624217851   -0.6738069616
H       -0.7881524151    1.2319309653    0.0889131930
H        0.0063662801    0.7235711611   -1.3901551416
H       -1.7589602976   -1.1325121679    0.2917709074
H       -1.0504018817   -1.5013747578   -1.2690524669
H       -3.4395970368   -0.8382326797   -1.5434781966
H       -3.1235211700    0.7124300354   -0.7496949654
H       -2.3975977657    0.3613477970   -2.3231919926
23   
torsion grid (-90,)
C        1.5636181385   -1.3641066726   -0.2082395569
C        0.9763000409   -0.0538636526    0.3505298101
C        0.6694424295   -0.2181128465    1.8581263407
C        2.0385002133    1.0521536129    0.1846301022
C       -0.2899790440    0.3758899828   -0.4275393871
C       -1.3995079675   -0.6729035347   -0.5802820237
C       -2.6455118962   -0.1002890490   -1.2670673762
H        1.7134933654   -1.3010713453   -1.2927925781
H        0.9113799789   -2.2210596277   -0.0095218329
H        2.5349964904   -1.5748523054    0.2528663004
H       -0.3465113423   -0.5845725806    2.0349894137
H        1.3760991901   -0.8980899629    2.3447454772
H        0.7363760926    0.7492028623    2.3701227656
H        1.6457585794    2.0264278401    0.4984092711
H        2.9262182327    0.8382766300    0.7915519018
H        2.3598907249    1.1398719209   -0.8598913936
H       -0.7077619591    1.2659967091    0.0642498532
H        0.0145036285    0.7029475030   -1.4316816206
H       -1.6823346019   -1.0737304306    0.4005558958
H       -1.0269785001   -1.5234275755   -1.1626378126
H       -3.4230231189   -0.8627020422   -1.3866374619
H       -3.0731120715    0.7249834862   -0.6858164854
H       -2.4038683516    0.2887375365   -2.2631946661
23   
torsion grid (-75,)
C        1.5585093597   -1.3308752793   -0.2440849156
C        0.9982440567   -0.0118901856    0.3208506701
C        0.7013147566   -0.1781777413    1.8247239634
C        2.0713985588    1.0822490789    0.1527760027
C       -0.2677951136    0.4366966880   -0.4477689053
C       -1.4172346782   -0.5743860987   -0.5527899980
C       -2.6356087928    0.0114488401   -1.2771784818
H        1.7069269108   -1.2658040528   -1.3286771196
H        0.8898905826   -2.1753901314   -0.0473521127
H        2.5268575782   -1.5639213582    0.2129113696
H       -0.2042511728   -0.7667237683    2.0021894047
H        1.5349951634   -0.6653890272    2.3419654519
H        0.5422607419    0.7990583285    2.2965326180
H        1.6988219695    2.0561910635    0.4911266266
H        2.9690696223    0.8463786356    0.7363544967
H        2.3715224590    1.1841839712   -0.8967199433
H       -0.6473154982    1.3548414721    0.0228778115
H        0.0319037702    0.7233441448   -1.4657227042
H       -1.7215821335   -0.9093232751    0.4458442720
H       -1.0777761240   -1.4689715045   -1.0874379046
H       -3.4453614573   -0.7221153563   -1.3563247457
H       -3.0281197554    0.8864916665   -0.7461210807
H       -2.3750155901    0.3316935324   -2.2928088822
23   
torsion grid (-60,)
C        1.8285334685   -0.9247260092   -0.3006901370
C        1.1900487194    0.3602787061    0.2589958122
C        0.9020144659    0.1782944631    1.7609016556
C        2.1838726712    1.5245555272    0.0825636824
C       -0.1042474061    0.7160819751   -0.5123638817
C       -1.2369346946   -0.3188555989   -0.4949353562
C       -2.4621578665    0.1550310343   -1.2866515228
H        2.0073834991   -0.8393657456   -1.3791574903
H        1.1940026691   -1.8009835053   -0.1337825167
H        2.7924016637   -1.1200670163    0.1832439976
H        0.2162415648   -0.6543781580    1.9465643432
H        1.8273583670   -0.0258446304    2.3116818608
H        0.4521080522    1.0828399379    2.1873699179
H        1.7665892238    2.4623070840    0.4677363977
H        3.1195156726    1.3291345656    0.6192956030
H        2.4301010760    1.6772615456   -0.9747522839
H       -0.4920058636    1.6641407853   -0.1133438721
H        0.1650168740    0.9185988564   -1.5587181991
H       -1.5379636539   -0.5300598311    0.5377428895
H       -0.8842565724   -1.2680085461   -0.9148651208
H       -3.2638660469   -0.5913280613   -1.2684602193
H       -2.8641119757    1.0869960170   -0.8722244983
H       -2.2058193537    0.3441543862   -2.3356598668
23   
torsion grid (-45,)
C        1.9362688595   -0.6544241791   -0.2362983799
C        1.2407121299    0.6116805578    0.2972226120
C        0.9064871252    0.4261267454    1.7913916908
C        2.1878808694    1.8151367759    0.1376469823
C       -0.0457359103    0.9036068342   -0.5146651370
C       -1.1642296701   -0.1441314741   -0.4411988225
C       -2.3894365724    0.2601244602   -1.2704317697
H        2.1850142562   -0.5493813671   -1.2990092712
H        1.3062132516   -1.5420357557   -0.1238237472
H        2.8696449970   -0.8432957377    0.3071114517
H        0.4682629865   -0.5569832883    1.9911979249
H        1.8172580601    0.4935324390    2.3983497154
H        0.2127830157    1.1962491865    2.1474237770
H        1.7384654538    2.7276028796    0.5468212047
H        3.1349114965    1.6438451675    0.6623925611
H        2.4181082846    2.0001850321   -0.9181181445
H       -0.4515656293    1.8682534489   -0.1782192521
H        0.2336920935    1.0455082133   -1.5682899439
H       -1.4684011601   -0.2923421473    0.6015670694
H       -0.7957922375   -1.1135109485   -0.7965418997
H       -3.1811263027   -0.4946533002   -1.2096848952
H       -2.8073417405    1.2112035011   -0.9200966537
H       -2.1274088392    0.3847017288   -2.3276582793
23   
torsion grid (-30,)
C        1.8439821546   -0.8954582978   -0.2866255846
C        1.2038453481    0.3956330788    0.2563820645
C        0.8477675456    0.2134551567    1.7519065928
C        2.1955809593    1.5628252177    0.1042119731
C       -0.0685752708    0.7389432731   -0.5590094303
C       -1.2129321087   -0.2818925695   -0.5083724344
C       -2.4510367821    0.1976711203   -1.2759776472
H        2.1062245541   -0.7905504969   -1.3461757413
H        1.1717603771   -1.7528631256   -0.1879948048
H        2.7633745207   -1.1341597377    0.2614703101
H        0.6103366553   -0.8280389258    1.9913657115
H        1.7041207214    0.4793332756    2.3831681681
H        0.0088608914    0.8483910920    2.0553705504
H        1.7822669025    2.4873721991    0.5243183465
H        3.1366305548    1.3501549731    0.6245586327
H        2.4295065535    1.7497887597   -0.9503860241
H       -0.4497466133    1.7071474907   -0.2043515765
H        0.2182884418    0.8936597054   -1.6087694790
H       -1.4889124861   -0.4812810676    0.5340129080
H       -0.8810763302   -1.2386949632   -0.9276629336
H       -3.2571619866   -0.5432784368   -1.2392989508
H       -2.8382451599    1.1335523741   -0.8563658426
H       -2.2151310186    0.3820290491   -2.3306446006
23   
torsion grid (-15,)
C        1.9523475704   -0.7777408064   -0.3343010325
C        1.3144950956    0.5216015446    0.1925825611
C        0.9746519282    0.3705363342    1.7023092868
C        2.3043372556    1.6852089518    0.0008766293
C        0.0331835000    0.8470837137   -0.6164025165
C       -1.0790355235   -0.2096914256   -0.5910997642
C       -2.3529642915    0.2720248885   -1.2960923980
H        2.1853954330   -0.6988692894   -1.4030167249
H        1.2912732681   -1.6381448047   -0.1948835279
H        2.8879762466   -0.9928978109    0.1956115062
H        1.0009920265   -0.6747645893    2.0260754308
H        1.7113071069    0.8962994786    2.3203198075
H       -0.0069461760    0.7852915215    1.9508275301
H        1.8875769668    2.6230980958    0.3865729600
H        3.2440345257    1.4933778180    0.5317367344
H        2.5415750193    1.8347271065   -1.0589466331
H       -0.3750691071    1.7956676676   -0.2396366903
H        0.3146445832    1.0338492891   -1.6623163706
H       -1.3182598247   -0.4770457443    0.4454675746
H       -0.7301955809   -1.1302621004   -1.0727549846
H       -3.1313899466   -0.4988051461   -1.2881984707
H       -2.7614353061    1.1645680310   -0.8078825409
H       -2.1514122607    0.5316757112   -2.3420245780
23   
torsion grid (0,)
C        1.9496075361   -0.7825284380   -0.3354386618
C        1.3335351830    0.5296584508    0.1868357904
C        1.0249290866    0.4049794523    1.7086370736
C        2.3474422642    1.6688162533   -0.0359117551
C        0.0477334929    0.8757731977   -0.6042561535
C       -1.0511524107   -0.1947503446   -0.6283713315
C       -2.3338898165    0.3053914360   -1.3038014504
H        2.1311517184   -0.7325439124   -1.4158857204
H        1.2993216087   -1.6414021825   -0.1425272738
H        2.9093661258   -0.9793027868    0.1562609755
H        1.3028140791   -0.5778239664    2.1025649503
H        1.5765569567    1.1510324856    2.2897956863
H       -0.0371409631    0.5519487977    1.9271522057
H        1.9393559523    2.6296082536    0.2993793461
H        3.2729802352    1.4853612797    0.5221557751
H        2.6085665371    1.7666607455   -1.0961921979
H       -0.3700254636    1.8026884976   -0.1863203650
H        0.3259877690    1.1112816936   -1.6411153813
H       -1.2838093382   -0.5193722165    0.3933912020
H       -0.6909083331   -1.0844523676   -1.1573056576
H       -3.1022564893   -0.4749656612   -1.3323653402
H       -2.7518203578    1.1667573794   -0.7697746429
H       -2.1398313719    0.6201355814   -2.3359302260
23   
torsion grid (15,)
C        1.8052792977   -1.3231240603   -0.4730843141
C        1.0612442214   -0.1123077163    0.1221372652
C        0.7232029700   -0.3792532787    1.6152564032
C        1.9967067891    1.1110661900    0.0350695869
C       -0.2192955191    0.2076794633   -0.6860557322
C       -1.2040266747   -0.9488200155   -0.9027567371
C       -2.4972195826   -0.4885115867   -1.5865716893
H        1.9913369138   -1.1863481033   -1.5451995802
H        1.2390097089   -2.2517832334   -0.3469872086
H        2.7739648856   -1.4576615403    0.0211874289
H        1.2930978145   -1.2254042440    2.0130916389
H        0.9254471273    0.4963923695    2.2398377540
H       -0.3325928675   -0.6352317248    1.7513635329
H        1.4933695255    2.0177166250    0.3909780554
H        2.8933639035    0.9636384127    0.6484482048
H        2.3217651132    1.2901486578   -0.9965869268
H       -0.7437710801    1.0318954146   -0.1819968136
H        0.0773153475    0.5971048964   -1.6700897744
H       -1.4519962196   -1.4209272059    0.0558142895
H       -0.7318701771   -1.7269982407   -1.5133259696
H       -3.1819494383   -1.3269537929   -1.7547376945
H       -3.0231085919    0.2556972554   -0.9771797260
H       -2.2875434319   -0.0289010005   -2.5596118946
23   
torsion grid (30,)
C        1.8133687055   -1.2704668701   -0.4906853902
C        1.0777187454   -0.0497525962    0.0935942138
C        0.7795699533   -0.2871257011    1.5930831535
C        2.0098403894    1.1730699548   -0.0319667325
C       -0.2217710535    0.2561210478   -0.6886900984
C       -1.2057659835   -0.9054038221   -0.8809984730
C       -2.5009729184   -0.4577159860   -1.5695297504
H        1.9627412642   -1.1629937641   -1.5717756346
H        1.2605336898   -2.2003852741   -0.3201918821
H        2.7989358553   -1.3820508264   -0.0251888922
H        1.5391956811   -0.9299630924    2.0511732951
H        0.7290920608    0.6542321203    2.1498101199
H       -0.1755457662   -0.8042289175    1.7348793604
H        1.5078211093    2.0875532624    0.3051816584
H        2.9121418670    1.0429851466    0.5771522814
H        2.3255705310    1.3266239229   -1.0706003953
H       -0.7410111624    1.0807673013   -0.1798335317
H        0.0533224639    0.6412307822   -1.6806789816
H       -1.4521454432   -1.3597839091    0.0862196188
H       -0.7349335231   -1.6941804702   -1.4789217920
H       -3.1875685060   -1.2985280729   -1.7169164658
H       -3.0234311125    0.3001256294   -0.9741525909
H       -2.2944302658   -0.0194156988   -2.5530094573
23   
torsion grid (45,)
C        1.7923212632   -1.3099153980   -0.4980728500
C        1.0576898931   -0.0959938640    0.1008681664
C        0.7468122715   -0.3628675928    1.5872584158
C        1.9893542936    1.1291190039    0.0084360421
C       -0.2347337526    0.2252109236   -0.6876603263
C       -1.2473408845   -0.9139505177   -0.8647705137
C       -2.5099582031   -0.4530216492   -1.6035067610
H        1.9572312507   -1.1807720471   -1.5744710114
H        1.2303185211   -2.2386498246   -0.3543534366
H        2.7710617666   -1.4398855635   -0.0226880857
H        1.6189299625   -0.7874902780    2.0973701485
H        0.4514800030    0.5558878049    2.1059516351
H       -0.0648770120   -1.0885505397    1.7049383347
H        1.4900432162    2.0334785426    0.3754597988
H        2.8954249450    0.9807616475    0.6076008720
H        2.2988577029    1.3138844878   -1.0269497630
H       -0.7365260045    1.0696343858   -0.1940381960
H        0.0523083145    0.5882772927   -1.6846817610
H       -1.5332605191   -1.3233775736    0.1112605593
H       -0.7864912413   -1.7379627465   -1.4215895447
H       -3.2205607210   -1.2764703622   -1.7341335920
H       -3.0209826629    0.3451281316   -1.0525073549
H       -2.2652599844   -0.0624465616   -2.5982657285
23   
torsion grid (60,)
C        1.8440647057   -1.2280512147   -0.5251046765
C        1.1075273890   -0.0184731736    0.0802419913
C        0.8132609816   -0.2886718705    1.5675918869
C        2.0171804543    1.2205344549   -0.0281055483
C       -0.1986841763    0.2787077918   -0.6958984728
C       -1.2551109266   -0.8331965676   -0.7405611151
C       -2.4995691753   -0.4136744746   -1.5329443916
H        2.0312720377   -1.0809894856   -1.5954653290
H        1.2716512265   -2.1538003053   -0.4083390960
H        2.8126687992   -1.3764965927   -0.0340072915
H        1.7442474308   -0.4511449437    2.1229109010
H        0.2904881744    0.5581923964    2.0276246480
H        0.1933116660   -1.1805248985    1.7038379113
H        1.5287328985    2.1074876029    0.3921232319
H        2.9576380939    1.0678728758    0.5140416644
H        2.2650003652    1.4387815493   -1.0734881624
H       -0.6579843889    1.1786946891   -0.2629357508
H        0.0689536166    0.5453189988   -1.7282104341
H       -1.5548722200   -1.1084291360    0.2772979557
H       -0.8300470600   -1.7366178740   -1.1930807637
H       -3.2465222946   -1.2146141741   -1.5589989092
H       -2.9724026406    0.4694866409   -1.0875957095
H       -2.2425295849   -0.1630475273   -2.5688070244
23   
torsion grid (75,)
C        1.7842147690   -1.3636287296   -0.5310975573
C        1.0649747563   -0.1500399200    0.0869428898
C        0.7252269099   -0.4463143875    1.5619651513
C        1.9931324688    1.0765698933    0.0201534632
C       -0.2214485905    0.1784234552   -0.7108273850
C       -1.3220835088   -0.8904957800   -0.7225926038
C       -2.5480711733   -0.4478562149   -1.5308487670
H        2.0356725433   -1.1800543308   -1.5824863177
H        1.1688057259   -2.2672754267   -0.4845741142
H        2.7182412192   -1.5748788215    0.0028405867
H        1.6224165356   -0.3848279269    2.1884786897
H        0.0132708175    0.2905813413    1.9535515930
H        0.2840433452   -1.4391758510    1.6923545232
H        1.5263771075    1.9503915541    0.4898481497
H        2.9397721694    0.8835166128    0.5380156637
H        2.2266034826    1.3398321125   -1.0181281437
H       -0.6460306269    1.1089394252   -0.3079853765
H        0.0621400049    0.4015020572   -1.7491600916
H       -1.6315448503   -1.1186850109    0.3040846426
H       -0.9344110557   -1.8253771001   -1.1437515832
H       -3.3264014076   -1.2187938332   -1.5326622370
H       -2.9857406693    0.4674717505   -1.1154831128
H       -2.2802341558   -0.2414433493   -2.5737085975
23   
torsion grid (90,)
C        1.6947502990   -1.6073042347   -0.6063392859
C        1.0331210924   -0.3685065642    0.0263921592
C        0.6759290418   -0.6625556752    1.5037600290
C        2.0075925478    0.8210350106   -0.0366761724
C       -0.2414443459    0.0131287047   -0.7681000669
C       -1.3716851881   -1.0242256409   -0.7944786884
C       -2.6106043099   -0.5114133905   -1.5389438283
H        1.9546851875   -1.4239681904   -1.6557795507
H        1.0368757488   -2.4806066944   -0.5687607137
H        2.6179533573   -1.8689596547   -0.0755168299
H        1.5032513857   -0.3952051969    2.1704177484
H       -0.1781575344   -0.0544669202    1.8255920960
H        0.4150169967   -1.7117619646    1.6703522314
H        1.5782211614    1.7072811356    0.4454097630
H        2.9493702231    0.5858516399    0.4725097230
H        2.2435144952    1.0858195568   -1.0739951827
H       -0.6374236518    0.9489902931   -0.3488206374
H        0.0472277696    0.2442012286   -1.8032353394
H       -1.6529955229   -1.2957290472    0.2300260031
H       -1.0234304477   -1.9466066224   -1.2733548730
H       -3.4076502413   -1.2628170210   -1.5557063188
H       -3.0121993201    0.3909167589   -1.0631193694
H       -2.3700449040   -0.2569715470   -2.5778536074
23   
torsion grid (105,)
C        1.7739493604   -1.5294532942   -0.6460378548
C        1.1200867783   -0.2785988825   -0.0285254934
C        0.7759773343   -0.5433083037    1.4644602524
C        2.0992896378    0.9054228659   -0.1283981656
C       -0.1600135102    0.0924174260   -0.8190719443
C       -1.2612202624   -0.9744493097   -0.8787564475
C       -2.5354912840   -0.4552251241   -1.5559682785
H        2.0081879498   -1.3714163001   -1.7056886940
H        1.1224033703   -2.4051101501   -0.5709411037
H        2.7106196124   -1.7717970748   -0.1300226704
H        1.4783414474   -0.0327591564    2.1317104353
H       -0.2158672204   -0.1532161083    1.7185389137
H        0.7784408585   -1.6089475962    1.7117566138
H        1.6702341886    1.8091603292    0.3203723569
H        3.0371404151    0.6849594095    0.3944590694
H        2.3422297709    1.1332499833   -1.1728660147
H       -0.5802031575    1.0067991662   -0.3766703290
H        0.1256564298    0.3578103608   -1.8466965811
H       -1.5046047340   -1.3189085776    0.1338047547
H       -0.8995692734   -1.8539000697   -1.4236568290
H       -3.3060746363   -1.2320893496   -1.6094542563
H       -2.9560675965    0.3955392953   -1.0072057821
H       -2.3299649008   -0.1184201176   -2.5788730670
23   
torsion grid (120,)
C        1.5733845604   -1.8091016321   -0.5792836492
C        1.0007207426   -0.5227167252    0.0464055604
C        0.6656600911   -0.7639541008    1.5484446411
C        2.0610864042    0.5900497519   -0.0665704858
C       -0.2588992102   -0.0599581361   -0.7268625602
C       -1.3980714044   -1.0799362640   -0.8541778230
C       -2.6522214070   -0.4723819338   -1.4942861241
H        1.7721279865   -1.6747082514   -1.6494493145
H        0.8877926232   -2.6548636012   -0.4677048921
H        2.5176960860   -2.0847838721   -0.0956713830
H        1.2333569668   -0.0896967188    2.1977411384
H       -0.3937762692   -0.5958069683    1.7650128044
H        0.8987083309   -1.7869689838    1.8603995010
H        1.6856168118    1.5343200006    0.3450731023
H        2.9705528504    0.3230728423    0.4841596870
H        2.3413203472    0.7672747137   -1.1115725543
H       -0.6462631728    0.8446118454   -0.2369031133
H        0.0436130031    0.2504007514   -1.7368747569
H       -1.6555227667   -1.4831045385    0.1330636982
H       -1.0660326996   -1.9336201276   -1.4559410907
H       -3.4492598030   -1.2165946036   -1.5993281032
H       -3.0438406816    0.3539057092   -0.8895662351
H       -2.4332877249   -0.0751860573   -2.4924463403
23   
torsion grid (135,)
C        1.3320252485   -1.9709548476   -0.4201408343
C        0.7720765627   -0.6781935102    0.2038185638
C        0.4045154858   -0.9234818242    1.6937505715
C        1.8728327992    0.3998636774    0.1339722593
C       -0.4528581378   -0.1618167634   -0.5888622483
C       -1.5954740722   -1.1600569943   -0.8170966707
C       -2.8116687368   -0.5064021292   -1.4844926649
H        1.5311013282   -1.8406851546   -1.4907438216
H        0.6390405554   -2.8111877869   -0.3076592968
H        2.2736036060   -2.2528876148    0.0643676625
H        0.7598822080   -0.1071053435    2.3310938618
H       -0.6724515217   -1.0335260212    1.8489863959
H        0.8790751263   -1.8357940414    2.0719421293
H        1.5062172691    1.3620247515    0.5104872183
H        2.7417101253    0.1132031091    0.7380767576
H        2.2160781620    0.5506177437   -0.8963036173
H       -0.8501210989    0.7200389550   -0.0663741560
H       -0.1085755122    0.1986422137   -1.5684121164
H       -1.9045901913   -1.6072892256    0.1356298388
H       -1.2436962519   -1.9880533852   -1.4431603773
H       -3.6117705579   -1.2338797065   -1.6598083631
H       -3.2207383428    0.2967153588   -0.8604443288
H       -2.5425216577   -0.0670523025   -2.4522429138
23   
torsion grid (150,)
C        1.3246834173   -1.8503959872   -0.4061143090
C        0.7450271145   -0.5607672433    0.2055504525
C        0.4219092112   -0.7893663923    1.7012275140
C        1.8194799605    0.5407312894    0.1011450479
C       -0.5083448634   -0.0829264463   -0.5658404156
C       -1.6304735978   -1.1095766539   -0.7684487411
C       -2.8612738064   -0.4946471639   -1.4460130007
H        1.4832232666   -1.7406577490   -1.4856971905
H        0.6630556048   -2.7091046537   -0.2505429709
H        2.2904360871   -2.0906809414    0.0522660266
H        0.5232160475    0.1389577601    2.2741367475
H       -0.5816053337   -1.1942843967    1.8598224906
H        1.1320026501   -1.4984991295    2.1429535876
H        1.4333185823    1.5033928681    0.4561584957
H        2.6993725440    0.2897095926    0.7053019145
H        2.1516115596    0.6734721915   -0.9351931540
H       -0.9185598878    0.7925464193   -0.0425663588
H       -0.1907899636    0.2790797176   -1.5538761886
H       -1.9292124596   -1.5416585630    0.1942406376
H       -1.2637814983   -1.9435162751   -1.3779106778
H       -3.6481777557   -1.2409449583   -1.6006953121
H       -3.2830858092    0.3151352144   -0.8393145592
H       -2.6040256665   -0.0733766960   -2.4249667137
23   
torsion grid (165,)
C        1.3030567548   -1.8898087359   -0.4150912798
C        0.7229002306   -0.6087908599    0.2132923373
C        0.3868157340   -0.8671167286    1.6956992557
C        1.7954771861    0.4962047072    0.1412930721
C       -0.5235807821   -0.1174472176   -0.5614157917
C       -1.6697975639   -1.1202157056   -0.7484544352
C       -2.8690810915   -0.4963514592   -1.4729487918
H        1.4792410749   -1.7587026691   -1.4894853199
H        0.6329682441   -2.7463804159   -0.2875940850
H        2.2600819653   -2.1477850792    0.0522109889
H        0.2264554308    0.0746945898    2.2331215395
H       -0.4996969898   -1.4961718503    1.8193377924
H        1.2212470897   -1.3763473824    2.1925766737
H        1.4105564425    1.4464298443    0.5295760414
H        2.6790429411    0.2266575932    0.7317783590
H        2.1216099909    0.6638346300   -0.8918512355
H       -0.9149093408    0.7740892395   -0.0510324862
H       -0.1990401218    0.2236025635   -1.5547293476
H       -1.9997156805   -1.5052970157    0.2236197280
H       -1.3166979955   -1.9866237051   -1.3194918665
H       -3.6766856176   -1.2236942538   -1.6101981291
H       -3.2749167355    0.3509909561   -0.9080611980
H       -2.5824622458   -0.1250095396   -2.4638702047
23   
torsion grid (180,)
C        1.3629076975   -1.8016990198   -0.4383223202
C        0.8009490404   -0.5068935243    0.1780971927
C        0.4867287851   -0.7419083532    1.6673479846
C        1.8676389690    0.5992256834    0.0648738092
C       -0.4606697531   -0.0337578758   -0.5842427205
C       -1.6571934095   -0.9936402047   -0.6210465481
C       -2.8422936499   -0.4072153439   -1.3984035268
H        1.5599144436   -1.6757260640   -1.5096186540
H        0.6718410216   -2.6424208075   -0.3204678356
H        2.3064342396   -2.0818411857    0.0440582229
H        0.0840974384    0.1652034928    2.1335668355
H       -0.2409886014   -1.5470246150    1.8093708367
H        1.3951666732   -1.0202225438    2.2141424223
H        1.5059604494    1.5424752920    0.4907387948
H        2.7833667267    0.3201229872    0.5989305760
H        2.1342475303    0.7854308952   -0.9820811121
H       -0.7908379272    0.9178198589   -0.1439384330
H       -0.1696187450    0.1988107777   -1.6184383279
H       -1.9804654703   -1.2308472300    0.3991900859
H       -1.3620217595   -1.9437851774   -1.0811622637
H       -3.6903193162   -1.1004613328   -1.4186402716
H       -3.1875203524    0.5294316656   -0.9452071602
H       -2.5648330693   -0.1887997430   -2.4362860810
