15   
torsion grid (-165,)
C       -1.8337160545   -1.1399419502   -1.0746229662
C       -1.7602150962   -1.0310413992    1.4969931559
C       -1.2936936499    0.2918527794    0.9738954666
C       -1.0317675227   -0.9838146341    0.1664595257
C       -1.7323402018   -1.5379815182   -3.4020403320
O       -3.0435222869   -1.0079678624   -1.1538059855
O       -1.0410021883   -1.4043215578   -2.1433135215
H       -1.2263622184   -1.4794562953    2.3291768915
H       -2.8229804201   -1.2434844830    1.4481459644
H       -2.0419706385    0.9696576829    0.5762771811
H       -0.4284409239    0.7633008558    1.4293101207
H       -0.0073590522   -1.3345461683    0.1129923460
H       -0.9571565732   -1.7509614006   -4.1382230437
H       -2.2555036371   -0.6113644528   -3.6501330176
H       -2.4554160251   -2.3557951056   -3.3561951156
15   
torsion grid (-150,)
C       -1.8043668065   -1.0133476560   -1.1074909410
C       -1.7346543728   -1.0864669675    1.4597408262
C       -1.3369671401    0.2968562752    1.0486089292
C       -1.0055693012   -0.8821653093    0.1374069122
C       -1.7392769740   -1.6096545084   -3.3932740836
O       -2.9909870922   -0.7515032852   -1.2134132516
O       -1.0438868909   -1.4589300012   -2.1385994392
H       -1.1766161940   -1.5784042454    2.2503232711
H       -2.7848122302   -1.3492713777    1.3879654362
H       -2.1203670954    0.9627517438    0.7021224859
H       -0.4996753783    0.7727002912    1.5494881695
H        0.0298838134   -1.1950827240    0.0669337973
H       -0.9901223374   -1.9676705796   -4.0995442266
H       -2.1500844549   -0.6512876178   -3.7196551110
H       -2.5525459369   -2.3325987997   -3.2945646961
15   
torsion grid (-135,)
C       -1.7720753337   -0.8876579234   -1.1428112250
C       -1.7042542110   -1.1409345778    1.4079375438
C       -1.3793747897    0.2922892546    1.1119247745
C       -0.9824065424   -0.7787058092    0.1105168463
C       -1.7622069313   -1.6736309402   -3.3714283179
O       -2.9210548569   -0.5046990192   -1.2869048735
O       -1.0628278925   -1.5033741074   -2.1214607732
H       -1.1218491293   -1.6688588299    2.1565119495
H       -2.7395665185   -1.4510907609    1.3115614949
H       -2.1978926665    0.9398199971    0.8155924993
H       -0.5728882534    0.7689197274    1.6604039051
H        0.0638310122   -1.0510028447    0.0291127495
H       -1.0558398207   -2.1741202819   -4.0338245422
H       -2.0540827712   -0.7037349941   -3.7811213754
H       -2.6562030001   -2.2852238770   -3.2281142711
15   
torsion grid (-120,)
C       -1.7312491977   -0.7753968956   -1.1818707935
C       -1.6708663279   -1.1937055568    1.3442531295
C       -1.4259020017    0.2775603698    1.1565482299
C       -0.9619192429   -0.6848998390    0.0873927868
C       -1.7814466874   -1.7351779928   -3.3409777653
O       -2.8235564028   -0.2728806171   -1.3843591913
O       -1.0892403066   -1.5536294492   -2.0887010182
H       -1.0637719243   -1.7437134174    2.0563649459
H       -2.6868882507   -1.5542465299    1.2197840821
H       -2.2784875510    0.8977982857    0.9006024785
H       -0.6558145689    0.7562184176    1.7534766211
H        0.0957528562   -0.9102914757    0.0047371873
H       -1.1299843308   -2.3675874359   -3.9441942112
H       -1.9451647073   -0.7723501385   -3.8307871950
H       -2.7460402476   -2.2213535913   -3.1763218441
15   
torsion grid (-105,)
C       -1.6857127406   -0.6753910822   -1.2103141342
C       -1.6294778799   -1.2409971717    1.2884240710
C       -1.4802324251    0.2573758643    1.1973354259
C       -0.9459943056   -0.5998707083    0.0809227435
C       -1.8041857621   -1.7847160626   -3.2942463407
O       -2.6972296610   -0.0550664445   -1.4880487887
O       -1.1316702159   -1.6021494779   -2.0315493636
H       -0.9952420581   -1.7949406570    1.9733062735
H       -2.6193646330   -1.6589895821    1.1340247139
H       -2.3690719786    0.8373511178    0.9718342051
H       -0.7531865832    0.7449387716    1.8394195213
H        0.1241568493   -0.7628963597    0.0037437336
H       -1.2268678292   -2.5423568622   -3.8242535889
H       -1.8214651192   -0.8490339161   -3.8582022283
H       -2.8302764853   -2.1243726397   -3.1336845791
15   
torsion grid (-90,)
C       -1.6437344793   -0.5937830197   -1.2407070742
C       -1.5725319509   -1.2853229788    1.2386275004
C       -1.5336031073    0.2278987338    1.2216047622
C       -0.9364366685   -0.5364167030    0.0746405546
C       -1.8484534868   -1.8110117959   -3.2572923531
O       -2.5346634659    0.1520240491   -1.6056409188
O       -1.2127276572   -1.6514770722   -1.9725839352
H       -0.9057886143   -1.8232463240    1.9052789435
H       -2.5292693828   -1.7674328118    1.0618480388
H       -2.4608033142    0.7546646909    1.0206339695
H       -0.8500181452    0.7344633461    1.8959712183
H        0.1442712208   -0.6178650839    0.0015793115
H       -1.3770085549   -2.6841308039   -3.7085499197
H       -1.6903868967   -0.9246645717   -3.8764795878
H       -2.9218849777   -1.9734618537   -3.1333492851
15   
torsion grid (-75,)
C       -1.6020091559   -0.5319637456   -1.2554219622
C       -1.5101499602   -1.3213910296    1.2152796682
C       -1.6051020941    0.1928347672    1.2453741165
C       -0.9346451093   -0.4877188686    0.0864129830
C       -1.9032280296   -1.8261607454   -3.2110521865
O       -2.3287282864    0.3274301886   -1.7188048646
O       -1.3223226334   -1.6934551029   -1.8973592743
H       -0.8101907011   -1.8171902461    1.8807843024
H       -2.4188407759   -1.8811516013    1.0148886829
H       -2.5729521434    0.6449894230    1.0534667459
H       -0.9764532809    0.7363791797    1.9440028039
H        0.1504680582   -0.4580779202    0.0251670096
H       -1.5688486142   -2.7957545878   -3.5802181108
H       -1.5564013972   -1.0235719519   -3.8665398765
H       -2.9936762363   -1.7916324658   -3.1505754257
15   
torsion grid (-60,)
C       -1.5360727720   -0.4933426456   -1.2820878285
C       -1.4370071282   -1.3542740614    1.1870169779
C       -1.6818632704    0.1430002595    1.2388075264
C       -0.9192564908   -0.4566119041    0.0872951671
C       -1.9618184581   -1.8410599424   -3.1770587850
O       -2.0603846307    0.4501698330   -1.8437558811
O       -1.4339456646   -1.7252071435   -1.8392735664
H       -0.7127826504   -1.7889511905    1.8693398915
H       -2.2799011700   -1.9977111259    0.9538190799
H       -2.6853646429    0.5027528853    1.0337780171
H       -1.1264031522    0.7351363325    1.9595940191
H        0.1554278767   -0.2912409847    0.0555802715
H       -1.7889217520   -2.8769016515   -3.4691471061
H       -1.4429704197   -1.1574687764   -3.8534307890
H       -3.0298259872   -1.6103973970   -3.1867441339
15   
torsion grid (-45,)
C       -1.4240454301   -0.4734842652   -1.3075235948
C       -1.3594493555   -1.3816893937    1.1619032148
C       -1.7661913606    0.0765062533    1.2056614932
C       -0.8783294688   -0.4335423504    0.0915490177
C       -2.0022909675   -1.8481041204   -3.1405398870
O       -1.7247460692    0.5083351426   -1.9605416995
O       -1.5127934767   -1.7382305397   -1.7875939843
H       -0.6323762152   -1.7395955382    1.8848483673
H       -2.1118361104   -2.1111152232    0.8793597469
H       -2.7911026558    0.3287216722    0.9508888839
H       -1.3153924913    0.7227824940    1.9524621755
H        0.1631308565   -0.1224858287    0.1184844412
H       -2.0130596511   -2.9157090470   -3.3601748222
H       -1.3400246519   -1.3184389876   -3.8294742243
H       -3.0077722565   -1.4274772632   -3.2181361169
15   
torsion grid (-30,)
C       -1.3153112894   -0.4479192667   -1.2948945537
C       -1.2740127830   -1.4017847804    1.1650410299
C       -1.8411689235   -0.0041347916    1.1908336411
C       -0.8319186793   -0.4041069748    0.1227973305
C       -2.0852146488   -1.8028914596   -3.0708985483
O       -1.4070135503    0.5301958550   -2.0136943839
O       -1.6063614996   -1.7047541534   -1.7134336787
H       -0.5531321019   -1.6801128529    1.9282312833
H       -1.9200789362   -2.2085558707    0.8356173975
H       -2.8715264822    0.1352348533    0.8776540222
H       -1.5053549330    0.6860005928    1.9585279653
H        0.1536830589    0.0434610434    0.2102865510
H       -2.2835579617   -2.8623060546   -3.2337903417
H       -1.3264831686   -1.4402262701   -3.7683042491
H       -2.9973071629   -1.2149422926   -3.1986481406
15   
torsion grid (-15,)
C       -1.2214030534   -0.4460771105   -1.3160482334
C       -1.2027386638   -1.4045112204    1.1442181852
C       -1.9140418802   -0.0805564990    1.1297353572
C       -0.8046225014   -0.3712146648    0.1156289012
C       -2.1634023644   -1.7763014098   -3.0273344106
O       -1.1248300268    0.4802668217   -2.1006538522
O       -1.7014742787   -1.6667764574   -1.6654017840
H       -0.4945000181   -1.5992216435    1.9442677293
H       -1.7396656656   -2.2759066279    0.7864342655
H       -2.9336229150   -0.0537496855    0.7572990714
H       -1.6940055174    0.6476053602    1.9040514439
H        0.1158701235    0.1861582859    0.2531296264
H       -2.5285391660   -2.7983494897   -3.1297310524
H       -1.3421673209   -1.5884364124   -3.7228204558
H       -2.9650254435   -1.0590151217   -3.2193065033
15   
torsion grid (0,)
C       -1.1317727725   -0.4659992057   -1.3359300541
C       -1.1373852424   -1.4122392436    1.1266588382
C       -1.9577074479   -0.1575527506    1.0793692977
C       -0.7864284707   -0.3484502597    0.1073572237
C       -2.2076983933   -1.7516975416   -3.0027018658
O       -0.8549654292    0.3740217217   -2.1735971004
O       -1.7877224189   -1.6189496290   -1.6298506920
H       -0.4422631109   -1.5413577814    1.9510177575
H       -1.5832006341   -2.3263355394    0.7516647753
H       -2.9586059254   -0.2202493851    0.6640580699
H       -1.8296161038    0.5887917760    1.8569978108
H        0.0806991119    0.2795593927    0.2781425447
H       -2.7218902505   -2.7113596261   -3.0585266186
H       -1.3414388120   -1.7389935444   -3.6680887002
H       -2.8815841974   -0.9366954903   -3.2778611787
15   
torsion grid (15,)
C       -1.0989584350   -0.4592621439   -1.3346304285
C       -1.0788426776   -1.3947654919    1.1243214590
C       -2.0032184118   -0.2167307735    1.0772321760
C       -0.8136447271   -0.2916580386    0.1141155320
C       -2.2546699972   -1.7078034090   -2.9770869419
O       -0.6727659564    0.2769840010   -2.2067762626
O       -1.8965175402   -1.5298660476   -1.5923286689
H       -0.3778721848   -1.4688686198    1.9503016857
H       -1.4397391454   -2.3399523105    0.7352647775
H       -2.9895287022   -0.3630389944    0.6495042211
H       -1.9454019731    0.5309631647    1.8620664122
H        0.0046596571    0.3946744575    0.2986281385
H       -2.8945641817   -2.5900834139   -3.0015661435
H       -1.3602043308   -1.8634765907   -3.5846511720
H       -2.7916078203   -0.8320012771   -3.3494566001
15   
torsion grid (30,)
C       -1.0965947148   -0.4851279002   -1.3196448774
C       -1.0402904509   -1.3953743034    1.1350649619
C       -2.0487525311   -0.2870703928    1.1000048748
C       -0.8688356002   -0.2623639498    0.1310134217
C       -2.3009422489   -1.7002302369   -2.9532893510
O       -0.5234320260    0.1226190923   -2.2064614220
O       -2.0240012924   -1.4502997059   -1.5612784464
H       -0.3279029962   -1.4250682717    1.9538144184
H       -1.3340283773   -2.3605428176    0.7379174751
H       -3.0240218505   -0.5030794778    0.6777828491
H       -2.0377192022    0.4551640703    1.8921110010
H       -0.0866654821    0.4645747871    0.3167685000
H       -3.0534462065   -2.4889871226   -2.9637243158
H       -1.3951181041   -2.0250849512   -3.4705601371
H       -2.6831300033   -0.7970208435   -3.4349730113
15   
torsion grid (45,)
C       -1.0819756393   -0.4932679446   -1.3272392585
C       -0.9739473665   -1.3689903809    1.1219807397
C       -2.0633058459   -0.3373462324    1.1036250771
C       -0.9085465880   -0.2160423960    0.1216670126
C       -2.3186456870   -1.6683543699   -2.9658498312
O       -0.3771289842   -0.0272404524   -2.2048433659
O       -2.1211127237   -1.3340157334   -1.5779254350
H       -0.2472394515   -1.3516012942    1.9281619074
H       -1.2022420293   -2.3513741552    0.7227814902
H       -3.0255122738   -0.6251553404    0.6952628087
H       -2.0965384328    0.3979677905    1.9017354565
H       -0.1646655604    0.5508093068    0.3048457512
H       -3.1768264242   -2.3404201023   -2.9845153506
H       -1.4325062964   -2.1640609630   -3.3695758982
H       -2.5216681945   -0.7678029767   -3.5500615137
15   
torsion grid (60,)
C       -1.0943921984   -0.5201838099   -1.3244117002
C       -0.9167836538   -1.3357977221    1.1270158099
C       -2.0911289710   -0.3965762868    1.1160068518
C       -0.9704825073   -0.1865227026    0.1193622796
C       -2.3653031685   -1.6283583066   -2.9823150710
O       -0.2793267182   -0.2015355338   -2.1717505937
O       -2.2230722219   -1.2230047785   -1.6062300441
H       -0.1807144525   -1.2533995828    1.9203947301
H       -1.0691892525   -2.3382157058    0.7402500852
H       -3.0324972616   -0.7682104679    0.7276496310
H       -2.1739845019    0.3364118225    1.9128083459
H       -0.2757534236    0.6283515245    0.2898442214
H       -3.3054589593   -2.1782965751   -3.0285025539
H       -1.5304376713   -2.2666947776   -3.2816532409
H       -2.3980063981   -0.7532617557   -3.6353698098
15   
torsion grid (75,)
C       -1.5573498177   -1.7842549120   -0.9694560774
C       -2.0483655768   -0.4942889747    1.2159903173
C       -0.7539410123    0.0940165719    0.7132781879
C       -1.0922730393   -1.3372697159    0.3739890525
C       -2.0485020936   -1.1519343659   -3.1936175546
O       -1.8973388474   -2.9253558920   -1.2254551007
O       -1.5511078157   -0.7862642679   -1.8904014300
H       -2.1395382242   -0.7566651225    2.2651390233
H       -2.9691268228   -0.1654299228    0.7441130979
H       -0.8063644747    0.8191743698   -0.0908858553
H        0.0511743116    0.2499874816    1.4250914163
H       -0.5811490632   -2.1312965291    0.9081803587
H       -1.9905634452   -0.2432957233   -3.7931388897
H       -3.0807455335   -1.5037493138   -3.1252051011
H       -1.4303474391   -1.9408459282   -3.6282317040
15   
torsion grid (90,)
C       -1.6268781000   -1.7400320015   -0.9805723552
C       -2.0253453697   -0.5586268053    1.2875269948
C       -0.8102918243    0.1299613333    0.7073000756
C       -1.0905395598   -1.3052307989    0.3453562185
C       -1.9800784321   -1.1686763467   -3.2461236442
O       -2.1387455430   -2.8260723863   -1.1828334551
O       -1.4554908462   -0.8081087143   -1.9516218252
H       -2.0172114505   -0.8560596610    2.3312810765
H       -3.0003650784   -0.2735581203    0.9038532196
H       -0.9707418141    0.8763852235   -0.0628897879
H        0.0355665578    0.3200603731    1.3613170892
H       -0.4915918248   -2.0827394573    0.8099004126
H       -1.7718709091   -0.3159687649   -3.8925292997
H       -3.0552556337   -1.3539109874   -3.1857187493
H       -1.4835616771   -2.0670364293   -3.6200996355
15   
torsion grid (105,)
C       -1.7049433953   -1.6868321435   -0.9918657519
C       -1.9940987390   -0.6298874618    1.3612843600
C       -0.8762378175    0.1593983031    0.7098912873
C       -1.1025427858   -1.2769594872    0.3188097310
C       -1.9151867894   -1.2017033753   -3.2946571233
O       -2.3883598812   -2.6817746263   -1.1477889016
O       -1.3714490435   -0.8499167216   -2.0052289314
H       -1.8768381526   -0.9554101882    2.3901342694
H       -3.0149537194   -0.3966409294    1.0739974816
H       -1.1489658404    0.9206277604   -0.0135624307
H        0.0070653693    0.3877144188    1.2989462305
H       -0.4092953212   -2.0257150667    0.6930672022
H       -1.5575983885   -0.4337975425   -3.9806691377
H       -3.0072858158   -1.2101921672   -3.2596401054
H       -1.5604677639   -2.1887531261   -3.6003893695
15   
torsion grid (120,)
C       -1.7876550851   -1.6214328170   -0.9909500472
C       -1.9574512533   -0.6995267288    1.4345720688
C       -0.9544860190    0.1888790804    0.7241596862
C       -1.1210266796   -1.2500126227    0.3035627157
C       -1.8626423602   -1.2432594041   -3.3227002435
O       -2.6465492829   -2.4750149600   -1.1107488450
O       -1.2967712489   -0.9125171797   -2.0371455891
H       -1.7313738369   -1.0398817010    2.4403826883
H       -3.0128108738   -0.5348760486    1.2399711694
H       -1.3375536991    0.9524181435    0.0544216729
H       -0.0418427631    0.4624454365    1.2452504204
H       -0.3315075872   -1.9475534965    0.5735431355
H       -1.3583125298   -0.5938694547   -4.0383050142
H       -2.9394298840   -1.0575358758   -3.3247596478
H       -1.6815635485   -2.2942510973   -3.5602176133
15   
torsion grid (135,)
C       -1.8414631441   -1.5499699809   -0.9891701050
C       -1.9124232693   -0.7739851019    1.4885098470
C       -1.0371859924    0.2135961432    0.7476436152
C       -1.1216258482   -1.2288940746    0.2894431155
C       -1.8096434672   -1.2955815269   -3.3394541507
O       -2.8654257882   -2.2010678054   -1.0808055915
O       -1.2092254075   -1.0081882197   -2.0594685191
H       -1.5920161826   -1.1199947161    2.4665441331
H       -2.9882141199   -0.6960720724    1.3659943346
H       -1.5251020859    0.9633096551    0.1320964301
H       -0.1118569271    0.5430959665    1.2105000281
H       -0.2434631264   -1.8478549749    0.4561814014
H       -1.1772748029   -0.7987909998   -4.0753248258
H       -2.8288500624   -0.9037334757   -3.3790477719
H       -1.8346143757   -2.3734957629   -3.5171167200
15   
torsion grid (150,)
C       -1.8582585145   -1.4660567702   -1.0098513477
C       -1.8639160497   -0.8475334397    1.5067549640
C       -1.1196738061    0.2357721387    0.7677808517
C       -1.1030304905   -1.2010262524    0.2561271690
C       -1.7581068493   -1.3383599289   -3.3690055734
O       -3.0016832421   -1.8770605253   -1.0866441108
O       -1.1185290930   -1.1235859723   -2.0942038306
H       -1.4625398786   -1.1958061119    2.4536806553
H       -2.9466834622   -0.8640300739    1.4351235776
H       -1.7008888061    0.9603702791    0.2053069660
H       -0.1983494022    0.6240907877    1.1910706110
H       -0.1562758551   -1.7271423903    0.3373291705
H       -1.0259433388   -1.0333461685   -4.1167755597
H       -2.6641416719   -0.7325487833   -3.4471891020
H       -2.0209444029   -2.3915897757   -3.4942026214
15   
torsion grid (165,)
C       -1.8609006903   -1.3717820606   -1.0228631840
C       -1.8236347444   -0.9133725536    1.5205946104
C       -1.1922276255    0.2573117372    0.8212523556
C       -1.0810522125   -1.1524083417    0.2302365380
C       -1.7342256395   -1.3962357045   -3.3836750223
O       -3.0623841606   -1.5621551811   -1.0904069792
O       -1.0662355748   -1.2419955947   -2.1149036738
H       -1.3628621037   -1.2790442346    2.4332434953
H       -2.9035185682   -1.0088876713    1.4755065500
H       -1.8465025405    0.9585582465    0.3124160476
H       -0.2849509260    0.6909334866    1.2303425149
H       -0.0930957690   -1.6007530192    0.2495323060
H       -0.9561945168   -1.2789243159   -4.1381108032
H       -2.5055106047   -0.6314963713   -3.5033935159
H       -2.1959167034   -2.3838734966   -3.4569082933
15   
torsion grid (180,)
C       -1.8540776934   -1.2678994134   -1.0492499924
C       -1.7946957957   -0.9792088476    1.5138765207
C       -1.2530861626    0.2721813450    0.8910217758
C       -1.0605813393   -1.0824788630    0.1958698411
C       -1.7265815570   -1.4734176339   -3.4007115162
O       -3.0711230907   -1.2837626229   -1.1181051491
O       -1.0455341554   -1.3410780383   -2.1363298165
H       -1.2924710846   -1.3816948334    2.3882332256
H       -2.8670598744   -1.1387663272    1.4732949239
H       -1.9600638931    0.9594024897    0.4372475519
H       -0.3656694808    0.7323471364    1.3143417010
H       -0.0499267127   -1.4749395749    0.1735739446
H       -0.9379751146   -1.5322429723   -4.1509732891
H       -2.3664677445   -0.6062873078   -3.5813828365
H       -2.3387374791   -2.3783418199   -3.4134152262
