
  -OEChem-12102412483D

 30 32  0     0  0  0  0  0  0999 V2000
   10.3237    2.0979   -3.3907 C   0  0  0  0  0  0  0  0  0  0  0  0
   10.0020   -2.8368    0.2418 C   0  0  0  0  0  0  0  0  0  0  0  0
   10.5013    3.4747   -3.1982 C   0  0  0  0  0  0  0  0  0  0  0  0
    8.6174   -2.6474    0.2935 C   0  0  0  0  0  0  0  0  0  0  0  0
   10.6086    1.2216   -2.3493 C   0  0  0  0  0  0  0  0  0  0  0  0
   10.8478   -1.7311    0.1577 C   0  0  0  0  0  0  0  0  0  0  0  0
   10.9880    3.9526   -1.9853 C   0  0  0  0  0  0  0  0  0  0  0  0
    8.0877   -1.3553    0.2730 C   0  0  0  0  0  0  0  0  0  0  0  0
   11.0935    1.6820   -1.1112 C   0  0  0  0  0  0  0  0  0  0  0  0
   10.3392   -0.4232    0.1107 C   0  0  0  0  0  0  0  0  0  0  0  0
   11.3002    3.0683   -0.9389 C   0  0  0  0  0  0  0  0  0  0  0  0
    8.9466   -0.2579    0.1817 C   0  0  0  0  0  0  0  0  0  0  0  0
   11.3033    0.7156   -0.0047 C   0  0  0  0  0  0  0  0  0  0  0  0
   12.7634    3.1393    1.0909 C   0  0  0  0  0  0  0  0  0  0  0  0
   13.2954    1.7637    0.7052 C   0  0  0  0  0  0  0  0  0  0  0  0
   12.2735    0.7337    0.8375 N   0  0  0  0  0  0  0  0  0  0  0  0
   11.7380    3.6101    0.2833 N   0  0  0  0  0  0  0  0  0  0  0  0
   13.1880    3.8014    2.0259 O   0  0  0  0  0  0  0  0  0  0  0  0
    8.2297    1.3471    0.2295 Cl  0  0  0  0  0  0  0  0  0  0  0  0
    9.9537    1.7186   -4.3387 H   0  0  0  0  0  0  0  0  0  0  0  0
   10.4195   -3.8393    0.2689 H   0  0  0  0  0  0  0  0  0  0  0  0
   10.2670    4.1745   -3.9957 H   0  0  0  0  0  0  0  0  0  0  0  0
    7.9467   -3.4996    0.3604 H   0  0  0  0  0  0  0  0  0  0  0  0
   10.4395    0.1566   -2.4781 H   0  0  0  0  0  0  0  0  0  0  0  0
   11.9255   -1.8587    0.1272 H   0  0  0  0  0  0  0  0  0  0  0  0
   11.1370    5.0199   -1.8385 H   0  0  0  0  0  0  0  0  0  0  0  0
    7.0166   -1.1926    0.3393 H   0  0  0  0  0  0  0  0  0  0  0  0
   13.6796    1.8218   -0.3250 H   0  0  0  0  0  0  0  0  0  0  0  0
   14.1202    1.5391    1.3806 H   0  0  0  0  0  0  0  0  0  0  0  0
   11.4990    4.5789    0.4705 H   0  0  0  0  0  0  0  0  0  0  0  0
  1  3  1  0  0  0  0
  1  5  2  0  0  0  0
  1 20  1  0  0  0  0
  2  4  1  0  0  0  0
  2  6  2  0  0  0  0
  2 21  1  0  0  0  0
  3  7  2  0  0  0  0
  3 22  1  0  0  0  0
  4  8  2  0  0  0  0
  4 23  1  0  0  0  0
  5  9  1  0  0  0  0
  5 24  1  0  0  0  0
  6 10  1  0  0  0  0
  6 25  1  0  0  0  0
  7 11  1  0  0  0  0
  7 26  1  0  0  0  0
  8 12  1  0  0  0  0
  8 27  1  0  0  0  0
  9 11  2  0  0  0  0
  9 13  1  0  0  0  0
 10 12  2  0  0  0  0
 10 13  1  0  0  0  0
 11 17  1  0  0  0  0
 12 19  1  0  0  0  0
 13 16  2  0  0  0  0
 14 15  1  0  0  0  0
 14 17  1  0  0  0  0
 14 18  2  0  0  0  0
 15 16  1  0  0  0  0
 15 28  1  0  0  0  0
 15 29  1  0  0  0  0
 17 30  1  0  0  0  0
M  END
$$$$
