30
0 1 C15ClH11N2O
C                    -2.185939080987   -10.849990146076    -2.348024383123
C                     1.610035776620    -6.051069377701    -2.819392285593
C                    -2.939256707717   -11.435471182241    -1.321567404057
C                     0.502092111242    -5.271346739511    -3.166051862965
C                    -1.187982660427    -9.936988570474    -2.025146225394
C                     1.459793587461    -7.100863600935    -1.913790528309
C                    -2.666509925495   -11.126322479616     0.007548321319
C                    -0.745361452660    -5.537814230866    -2.597545260063
C                    -0.899824846094    -9.601898113995    -0.689249750243
C                     0.211575658829    -7.404845295564    -1.347062146047
C                    -1.642840249800   -10.222671401825     0.338822685136
C                    -0.882238329428    -6.597195229536    -1.697826794464
C                     0.118048391772    -8.560982743508    -0.401344665654
C                    -0.235103200413    -9.769726941531     2.358757716238
C                     0.987665267922    -9.740491959141     1.448843138228
N                     0.970061949880    -8.586053122417     0.560155207540
N                    -1.445985740044    -9.906882498894     1.695503119122
O                    -0.185876940191    -9.687407272080     3.576795790111
Cl                   -2.459754266706    -6.844405004385    -0.960988677425
H                    -2.387676007235   -11.095137468621    -3.386637610489
H                     2.584721116038    -5.840893191507    -3.250692762959
H                    -3.734300110970   -12.137707406910    -1.557152986540
H                     0.604991461248    -4.449401125765    -3.869299937962
H                    -0.623767711162    -9.451792023922    -2.816077921720
H                     2.310838095093    -7.709915809345    -1.624924637826
H                    -3.242887732483   -11.588652347543     0.805567404447
H                    -1.607969837039    -4.924148078731    -2.836985120635
H                     1.864588933037    -9.683606425014     2.092940827096
H                     1.016976806379   -10.684941832567     0.883762926014
H                    -2.227331703413   -10.064010924013     2.324371918675
