23
0 1 C10H11NO
C                    -1.753824559735    -1.319376959662    -0.128214441625
C                    -0.388001054821    -1.033552848578    -0.034298525658
C                    -2.176234447203    -2.648358173483    -0.170184428139
C                     0.541945177242    -2.076196633546     0.007490207078
C                    -1.247661562296    -3.695259511908    -0.096211925924
C                     0.134656856659    -3.416474764795    -0.021968119846
C                    -1.795629040784    -5.095766122018    -0.137808149282
C                     1.159824548369    -4.530155785366    -0.022049311505
C                     1.171484899413    -5.363615496158     1.274888597635
C                    -0.252129789381    -5.691119678728     1.748562522095
N                    -1.154146175267    -6.027526056052     0.644120274151
O                    -2.772451483535    -5.394401232364    -0.827088575929
H                    -2.481421533432    -0.513513200102    -0.174831958742
H                    -0.046044629869    -0.001972635055    -0.006245487026
H                    -3.228833738287    -2.897619388457    -0.264852828808
H                     1.604540959217    -1.847307285946     0.052440202136
H                     0.949830102796    -5.202962973070    -0.859939595536
H                     2.156362022572    -4.113683070406    -0.196203621787
H                     1.736979833099    -6.285002255087     1.095241660745
H                     1.683323063139    -4.817529597203     2.076106091326
H                    -0.239423413745    -6.538572967554     2.438793499182
H                    -0.660252156750    -4.837732974552     2.300198976689
H                    -1.607544145723    -6.933806424900     0.642291617631
