27
0 1 C14H10N2O
C                     1.862084480177    -1.073694078029    -0.098255036801
C                     0.720061215045    -0.614643759406     0.568376716356
C                     4.917117303307    -3.807923779567     4.376220807127
C                     6.201345942212    -3.523590413604     3.903065132368
C                     2.945421585179    -1.560834525313     0.632202393725
C                     0.688682885032    -0.613651414550     1.961274250311
C                     3.827865023694    -3.174101823113     3.784129495626
C                     6.324530808455    -2.624794938895     2.840461836077
C                     1.108950880114    -0.836058960458     6.216146578994
C                     2.432798275933    -0.521645717186     6.167331156083
C                     2.917400461225    -1.601502534801     2.034694900071
C                     1.785130154341    -1.084445471961     2.703741310007
C                     4.052225127673    -2.265576213571     2.734791269686
C                     1.707095015802    -0.957270403171     4.163734561321
N                     5.285281335453    -2.011326349779     2.260826218384
N                     0.658768518480    -1.109485079216     4.929508670333
O                     2.829744584657    -0.586400248730     4.855733270755
H                     1.903152404758    -1.061947534600    -1.184297660836
H                    -0.133016322637    -0.244015613579     0.006499719634
H                     4.766434838709    -4.516772787873     5.186472392991
H                     7.082556286699    -3.990453726819     4.333663402159
H                     3.828149990913    -1.938073602656     0.125889602094
H                    -0.173578660728    -0.229059874957     2.496984487028
H                     2.816319729247    -3.388377534575     4.114849398146
H                     7.305799953766    -2.386186156424     2.432161728667
H                     0.453026223465    -0.888439058646     7.074625523718
H                     3.185020611673    -0.242512856136     6.889620440023
