
  -OEChem-12102412483D

 31 33  0     0  0  0  0  0  0999 V2000
    1.8689   -1.1759   -0.1311 C   0  0  0  0  0  0  0  0  0  0  0  0
    0.3724   -3.8276    8.3514 C   0  0  0  0  0  0  0  0  0  0  0  0
    0.6336   -1.1571    0.5252 C   0  0  0  0  0  0  0  0  0  0  0  0
    3.0515   -1.0941    0.6127 C   0  0  0  0  0  0  0  0  0  0  0  0
    1.0238   -2.5906    8.3335 C   0  0  0  0  0  0  0  0  0  0  0  0
    0.2219   -4.5253    7.1478 C   0  0  0  0  0  0  0  0  0  0  0  0
    0.5833   -1.0571    1.9192 C   0  0  0  0  0  0  0  0  0  0  0  0
    2.9969   -0.9923    2.0057 C   0  0  0  0  0  0  0  0  0  0  0  0
    1.5226   -2.0547    7.1441 C   0  0  0  0  0  0  0  0  0  0  0  0
    0.6967   -3.9865    5.9523 C   0  0  0  0  0  0  0  0  0  0  0  0
    1.7629   -0.9671    2.6705 C   0  0  0  0  0  0  0  0  0  0  0  0
    1.3576   -2.7409    5.9246 C   0  0  0  0  0  0  0  0  0  0  0  0
    0.8254    0.1044    4.8337 C   0  0  0  0  0  0  0  0  0  0  0  0
    2.3410    0.2733    4.8525 C   0  0  0  0  0  0  0  0  0  0  0  0
    1.7164   -0.9216    4.1737 C   0  0  0  0  0  0  0  0  0  0  0  0
    1.8840   -2.2805    4.7048 N   0  0  0  0  0  0  0  0  0  0  0  0
    1.9100   -1.2509   -1.2148 H   0  0  0  0  0  0  0  0  0  0  0  0
   -0.0048   -4.2414    9.2823 H   0  0  0  0  0  0  0  0  0  0  0  0
   -0.2881   -1.2185   -0.0479 H   0  0  0  0  0  0  0  0  0  0  0  0
    4.0139   -1.1080    0.1072 H   0  0  0  0  0  0  0  0  0  0  0  0
    1.1633   -2.0374    9.2593 H   0  0  0  0  0  0  0  0  0  0  0  0
   -0.2802   -5.4897    7.1350 H   0  0  0  0  0  0  0  0  0  0  0  0
   -0.3757   -1.0424    2.4316 H   0  0  0  0  0  0  0  0  0  0  0  0
    3.9128   -0.9278    2.5877 H   0  0  0  0  0  0  0  0  0  0  0  0
    2.0600   -1.1147    7.1768 H   0  0  0  0  0  0  0  0  0  0  0  0
    0.5542   -4.5322    5.0210 H   0  0  0  0  0  0  0  0  0  0  0  0
    0.3370   -0.1673    5.7632 H   0  0  0  0  0  0  0  0  0  0  0  0
    0.2482    0.7661    4.1949 H   0  0  0  0  0  0  0  0  0  0  0  0
    2.7722    1.0424    4.2182 H   0  0  0  0  0  0  0  0  0  0  0  0
    2.8648    0.1213    5.7896 H   0  0  0  0  0  0  0  0  0  0  0  0
    1.6897   -2.9438    3.9636 H   0  0  0  0  0  0  0  0  0  0  0  0
  1  3  1  0  0  0  0
  1  4  2  0  0  0  0
  1 17  1  0  0  0  0
  2  5  1  0  0  0  0
  2  6  2  0  0  0  0
  2 18  1  0  0  0  0
  3  7  2  0  0  0  0
  3 19  1  0  0  0  0
  4  8  1  0  0  0  0
  4 20  1  0  0  0  0
  5  9  2  0  0  0  0
  5 21  1  0  0  0  0
  6 10  1  0  0  0  0
  6 22  1  0  0  0  0
  7 11  1  0  0  0  0
  7 23  1  0  0  0  0
  8 11  2  0  0  0  0
  8 24  1  0  0  0  0
  9 12  1  0  0  0  0
  9 25  1  0  0  0  0
 10 12  2  0  0  0  0
 10 26  1  0  0  0  0
 11 15  1  0  0  0  0
 12 16  1  0  0  0  0
 13 14  1  0  0  0  0
 13 15  1  0  0  0  0
 13 27  1  0  0  0  0
 13 28  1  0  0  0  0
 14 15  1  0  0  0  0
 14 29  1  0  0  0  0
 14 30  1  0  0  0  0
 15 16  1  0  0  0  0
 16 31  1  0  0  0  0
M  END
$$$$
