
  -OEChem-12102412483D

 17 18  0     1  0  0  0  0  0999 V2000
   -1.1936   -0.8425   -0.6915 C   0  0  0  0  0  0  0  0  0  0  0  0
   -0.0610    1.3375   -0.7939 C   0  0  0  0  0  0  0  0  0  0  0  0
   -0.8942   -0.4093    0.7276 C   0  0  2  0  0  0  0  0  0  0  0  0
   -0.1853    0.9425    0.6612 C   0  0  1  0  0  0  0  0  0  0  0  0
    0.5674   -0.2784    1.1041 C   0  0  0  0  0  0  0  0  0  0  0  0
   -0.2719    0.0261   -1.5415 N   0  3  0  0  0  0  0  0  0  0  0  0
    1.5580   -0.7643    0.2172 O   0  0  0  0  0  0  0  0  0  0  0  0
   -0.9712   -1.8877   -0.9157 H   0  0  0  0  0  0  0  0  0  0  0  0
   -2.2255   -0.6198   -0.9688 H   0  0  0  0  0  0  0  0  0  0  0  0
   -0.8507    2.0307   -1.0887 H   0  0  0  0  0  0  0  0  0  0  0  0
    0.9125    1.7381   -1.0820 H   0  0  0  0  0  0  0  0  0  0  0  0
   -1.6423   -0.6277    1.4824 H   0  0  0  0  0  0  0  0  0  0  0  0
   -0.3952    1.7354    1.3706 H   0  0  0  0  0  0  0  0  0  0  0  0
    0.8209   -0.3423    2.1586 H   0  0  0  0  0  0  0  0  0  0  0  0
    0.6411   -0.4474   -1.5825 H   0  0  0  0  0  0  0  0  0  0  0  0
   -0.6239    0.1647   -2.4937 H   0  0  0  0  0  0  0  0  0  0  0  0
    1.9393   -1.5831    0.5750 H   0  0  0  0  0  0  0  0  0  0  0  0
  1  3  1  0  0  0  0
  1  6  1  0  0  0  0
  1  8  1  0  0  0  0
  1  9  1  0  0  0  0
  2  4  1  0  0  0  0
  2  6  1  0  0  0  0
  2 10  1  0  0  0  0
  2 11  1  0  0  0  0
  3  4  1  0  0  0  0
  3  5  1  0  0  0  0
  3 12  1  0  0  0  0
  4  5  1  0  0  0  0
  4 13  1  0  0  0  0
  5  7  1  0  0  0  0
  5 14  1  0  0  0  0
  6 15  1  0  0  0  0
  6 16  1  0  0  0  0
  7 17  1  0  0  0  0
M  CHG  1   6   1
M  END
$$$$
