16   
torsion grid (-165,)
C        0.8179668995   -2.9756713034    1.3560621171
C       -0.2972410639   -0.1338320390    0.9590784697
C        1.7472557156    0.5936497941    2.0351775392
C        1.5631413525   -1.6580822324    1.1632913759
N        0.8630768794   -0.5342408261    1.7540304452
O        0.8316569061   -3.8830606904    0.5524379680
S       -0.0011546310   -3.0758700082    2.9647385365
H       -0.9688330322   -0.9858316025    0.8213926806
H       -0.8508169710    0.6460208856    1.4896572192
H       -0.0156127896    0.2522003105   -0.0373730037
H        2.5571231722    0.2728493880    2.6972034268
H        2.1933026518    1.0325239095    1.1240071845
H        1.1819678481    1.3776647577    2.5477158481
H        1.7952798201   -1.5595937991    0.0890746124
H        2.5205569299   -1.7895375144    1.6827852717
H       -0.3391419509   -4.3710478589    2.7818735509
16   
torsion grid (-150,)
C        0.8855810637   -3.0072222016    1.3972744911
C       -0.2996151260   -0.1110209381    0.9535341469
C        1.7453012919    0.5601952180    2.0650444939
C        1.5470701302   -1.6625950503    1.1021956886
N        0.8586583925   -0.5508461944    1.7301832108
O        1.0514019169   -3.9962118424    0.7159650955
S       -0.1078003162   -2.9812935120    2.9066550735
H       -0.9652817012   -0.9570654756    0.7628693952
H       -0.8613122539    0.6335255774    1.5249197706
H       -0.0137122799    0.3342057957   -0.0167351561
H        2.5506009167    0.2082442926    2.7164880784
H        2.1963546871    1.0384362146    1.1765947366
H        1.1800503901    1.3223559662    2.6096782684
H        1.6469331825   -1.5761077100    0.0076449025
H        2.5606961797   -1.7433110421    1.5114427020
H       -0.3763987378   -4.3031479269    2.8173983441
16   
torsion grid (-135,)
C        0.9610481983   -3.0304727289    1.4589965565
C       -0.3004202865   -0.0693148589    0.9304614834
C        1.7408025583    0.5168377258    2.1014126892
C        1.5170419841   -1.6689269090    1.0396921003
N        0.8440848061   -0.5610702081    1.6948389864
O        1.2707539781   -4.0680402547    0.9135320832
S       -0.1804791736   -2.9268157224    2.8551765272
H       -0.9712337549   -0.8980123539    0.6889643663
H       -0.8625672893    0.6489846745    1.5343219580
H       -0.0002884939    0.4246963954   -0.0116354757
H        2.5297552502    0.1196549827    2.7466059322
H        2.2128635714    1.0353219012    1.2471696095
H        1.1777107566    1.2572616129    2.6775377171
H        1.4611806057   -1.6225415246   -0.0591122799
H        2.5785380691   -1.6851716012    1.3072148894
H       -0.3802630430   -4.2642499600    2.8559760990
16   
torsion grid (-120,)
C        1.1287958743   -3.0221473733    1.5870663582
C       -0.2274210257    0.2307947818    0.6520328555
C        1.5524923707    0.2086820987    2.3061424007
C        1.2611217277   -1.6988743936    0.8314314975
N        0.6218090221   -0.5880805823    1.5110317739
O        1.6422021447   -4.0539405653    1.2107060757
S        0.1381196636   -2.8740637160    3.0904668090
H       -0.9682694826   -0.4003731941    0.1530486567
H       -0.7671955835    0.9588533168    1.2651239617
H        0.3389085488    0.7848379417   -0.1184191778
H        2.1185285456   -0.4424974092    2.9775890544
H        2.2668698613    0.7772620069    1.6832454896
H        0.9925440809    0.9171091787    2.9237287740
H        0.8292218925   -1.8723650332   -0.1598039207
H        2.3372600543   -1.5429524759    0.6598455031
H        0.3335400419   -4.1741034106    3.4079171304
16   
torsion grid (-105,)
C        1.2138825945   -2.9855410237    1.6422067725
C       -0.1941280623    0.2930616675    0.6200857309
C        1.5199237430    0.1426248064    2.3271722138
C        1.1819840732   -1.7070530940    0.8058533670
N        0.5651768247   -0.5921449027    1.4988527793
O        1.8933028842   -3.9483294037    1.3569062037
S        0.1031974360   -2.9231571070    3.0656981326
H       -0.9559787524   -0.2807067018    0.0844609261
H       -0.7051807846    1.0494413519    1.2233059871
H        0.4375827142    0.8160616321   -0.1206984537
H        2.0349561515   -0.5453607459    3.0028049279
H        2.2784028126    0.6763499543    1.7261056623
H        0.9853671120    0.8742355522    2.9399445384
H        0.6095372610   -1.9618396957   -0.0929400391
H        2.2135739998   -1.5131852600    0.4696131769
H        0.4169277291   -4.1863158587    3.4317813164
16   
torsion grid (-90,)
C        1.2774367573   -2.9420557930    1.6896350420
C       -0.1718157116    0.3288236732    0.6059551485
C        1.5130815384    0.1078866127    2.3312495768
C        1.1244321066   -1.7149734460    0.7941451153
N        0.5365661986   -0.5883215815    1.4945944603
O        2.1011488531   -3.8111757195    1.5007349861
S        0.0396569224   -3.0004779164    3.0056225959
H       -0.9474542899   -0.2127401136    0.0564134333
H       -0.6603898760    1.1051596967    1.2022871851
H        0.4928089719    0.8255763545   -0.1242348354
H        1.9874546995   -0.5973855777    3.0190342696
H        2.3036379795    0.6013807689    1.7372075062
H        1.0041704394    0.8680520815    2.9307991053
H        0.4468424786   -2.0266726652   -0.0094355798
H        2.1069037172   -1.5096049537    0.3378030496
H        0.4440469517   -4.2253302501    3.4093421831
16   
torsion grid (-75,)
C        2.6386226450   -2.3710803142    2.1596208367
C       -0.2571996809   -0.3064981936    0.8643263400
C        1.5806628166    0.4962776841    2.2217724614
C        1.7238799901   -1.6643375132    1.1495491112
N        0.8399942760   -0.6785068336    1.7568003496
O        3.7897273348   -2.6545017818    1.9049353511
S        1.8653705406   -2.8766529804    3.7013334891
H       -0.8340443038   -1.1965075754    0.5949735655
H       -0.9254916404    0.3883659304    1.3814596867
H        0.0895339658    0.1785182958   -0.0654879108
H        2.3585819678    0.1929096051    2.9280914889
H        2.0606539271    1.0476082902    1.3941961381
H        0.8987445413    1.1749989402    2.7418771879
H        1.0975344058   -2.4501299254    0.7107201621
H        2.3772544505   -1.2544262150    0.3627736752
H        0.7368766602   -2.1640345928    3.4638413034
16   
torsion grid (-60,)
C        2.6475270032   -2.2996600347    2.1903512492
C       -0.2511597973   -0.2771130604    0.8648499486
C        1.6128320286    0.5088379460    2.1929299157
C        1.6876802664   -1.6830666381    1.1663009729
N        0.8383754018   -0.6568026756    1.7628194597
O        3.8418034046   -2.3916936604    2.0060443452
S        1.8730407042   -3.0195346681    3.6477590149
H       -0.8518251394   -1.1577068301    0.6164663731
H       -0.9003167256    0.4461920710    1.3672474912
H        0.1049747709    0.1773504100   -0.0773203537
H        2.3798384208    0.2061613360    2.9112238434
H        2.1115349876    1.0211554521    1.3510174580
H        0.9491073479    1.2224210436    2.6893382170
H        1.0211126577   -2.4846925871    0.8288506202
H        2.2986811514   -1.3249016372    0.3219303075
H        0.6774954139   -2.4249436465    3.4309743731
16   
torsion grid (-45,)
C        2.6292297833   -2.2444627162    2.2469741565
C       -0.2478975911   -0.2438259386    0.8762947403
C        1.6541066384    0.5515131587    2.1370258612
C        1.6494729062   -1.6912718500    1.2072229603
N        0.8426200212   -0.6129648584    1.7773782207
O        3.8314851230   -2.1190699363    2.1616988994
S        1.9071146340   -3.2128658894    3.5851493533
H       -0.8764221248   -1.1170174826    0.6743286354
H       -0.8705431544    0.5187837695    1.3535255673
H        0.1077702163    0.1582372472   -0.0901836187
H        2.4211359922    0.2693305339    2.8624674910
H        2.1568794799    1.0051158395    1.2639466317
H        1.0131452730    1.3073264060    2.5996678609
H        0.9485394103   -2.4866436576    0.9353912757
H        2.2415024313   -1.3869015001    0.3281878895
H        0.6325628580   -2.8332803050    3.3517073116
16   
torsion grid (-30,)
C        1.1644344700   -2.9971391400    1.8606182474
C       -0.2196472994   -0.3748242670    0.8956046210
C        1.6687616193    0.7146889931    1.9280954002
C        1.7757698353   -1.6431389996    1.4817224655
N        0.9016350195   -0.5252691534    1.8216492942
O        1.2178785110   -3.4639691353    2.9752819831
S        0.3487390882   -3.8459738432    0.4836450321
H       -0.8482620332   -1.2673524803    0.9055802919
H       -0.8349024477    0.4714985820    1.2139188931
H        0.1077885254   -0.1936940151   -0.1460595348
H        2.4465702697    0.6060066247    2.6896952333
H        2.1496695258    1.0115296555    0.9767649332
H        1.0024792502    1.5250072755    2.2385314092
H        2.0907915905   -1.6515110206    0.4205786570
H        2.6805625524   -1.5666209521    2.0908904085
H       -0.0398688942   -4.9044620475    1.2236191539
16   
torsion grid (-15,)
C        1.0682800253   -2.9678212389    1.8452265838
C       -0.2456120500   -0.3944562988    1.0078537495
C        1.7150565953    0.7365459684    1.8521172594
C        1.7663862362   -1.6402444746    1.5330169268
N        0.9309853812   -0.4955629376    1.8686148685
O        0.8184788995   -3.3530200884    2.9636050181
S        0.6440695171   -3.9093074289    0.3579405889
H       -0.8703492340   -1.2850266894    1.1127796600
H       -0.8409666331    0.4702508192    1.3142931307
H        0.0119872037   -0.2783612844   -0.0621094760
H        2.5442198432    0.6575595358    2.5619802821
H        2.1318319963    0.9741992848    0.8548381085
H        1.0812488232    1.5722988622    2.1633326160
H        2.1150123233   -1.6374513816    0.4820815691
H        2.6552813898   -1.6187631176    2.1722844500
H        0.0864892660   -4.9360634535    1.0322811532
16   
torsion grid (0,)
C        0.9892502199   -2.9523260391    1.8197269701
C       -0.2641752921   -0.3541896944    1.0541643983
C        1.7473584448    0.7332523778    1.8400653437
C        1.7242201063   -1.6442173201    1.5102208015
N        0.9369658370   -0.4802010758    1.8761644363
O        0.5276531552   -3.2387282325    2.8991864966
S        0.8914441970   -4.0438185215    0.3789140197
H       -0.8927356056   -1.2415844464    1.1693205534
H       -0.8428518233    0.5109949564    1.3898996075
H       -0.0384511021   -0.2260196851   -0.0215812921
H        2.5971871806    0.6317001560    2.5222918064
H        2.1374678386    0.9677721736    0.8312002542
H        1.1433747615    1.5816353507    2.1756564080
H        2.0465470184   -1.6424157027    0.4506655472
H        2.6335724805   -1.6623846376    2.1226371060
H        0.2755721662   -5.0446935827    1.0416040319
16   
torsion grid (15,)
C        0.9198482574   -2.9503208253    1.7756326287
C       -0.2883927981   -0.2903137932    1.0863792848
C        1.7762284395    0.7171204494    1.8426370683
C        1.6658285223   -1.6499386924    1.4652146370
N        0.9296212020   -0.4711691046    1.8722786014
O        0.2702800873   -3.1582229117    2.7726819666
S        1.1464109010   -4.1838996349    0.4670266277
H       -0.9378962795   -1.1625116866    1.1981681240
H       -0.8336089094    0.5816867995    1.4586594872
H       -0.0858538427   -0.1391204433    0.0089039120
H        2.6393726636    0.5744911746    2.5005490240
H        2.1486749730    0.9634272585    0.8298212144
H        1.2078492892    1.5758588939    2.2123204682
H        1.9558251488   -1.6455856690    0.3957999403
H        2.5989313478   -1.7047665478    2.0405901254
H        0.4992805810   -5.1619591904    1.1334733785
16   
torsion grid (30,)
C        0.8666580063   -2.9536680728    1.7172991439
C       -0.3098354713   -0.2341405429    1.1178260986
C        1.7991201812    0.6957168605    1.8477911533
C        1.6160673436   -1.6551246392    1.4171573329
N        0.9209568592   -0.4702704686    1.8697308371
O        0.0438053300   -3.1085968612    2.5876402312
S        1.3915832533   -4.2916551040    0.6059734313
H       -0.9826369357   -1.0877866010    1.2263152504
H       -0.8177339196    0.6456188980    1.5231840185
H       -0.1257848503   -0.0615242822    0.0401595808
H        2.6742460674    0.5144628483    2.4799935477
H        2.1529930209    0.9576140688    0.8322525848
H        1.2635457170    1.5596124419    2.2526020021
H        1.8697329528   -1.6384994539    0.3379550182
H        2.5703858262   -1.7395622072    1.9531554931
H        0.6792962018   -5.2374208079    1.2511007648
16   
torsion grid (45,)
C        0.8392356301   -2.9614460257    1.6637527118
C       -0.3243129096   -0.1890390361    1.1407323480
C        1.8149800589    0.6722796985    1.8606283337
C        1.5796751276   -1.6593690416    1.3605910931
N        0.9143103920   -0.4770458057    1.8621929051
O       -0.1216448320   -3.0821358461    2.3852202317
S        1.6028941157   -4.3709597350    0.8008110571
H       -1.0110326427   -1.0328560086    1.2274579493
H       -0.8071403831    0.6843619700    1.5884960312
H       -0.1518379586    0.0236274893    0.0681648303
H        2.6985628370    0.4551859954    2.4694089625
H        2.1540635213    0.9611556462    0.8473475124
H        1.3037382449    1.5321332822    2.3036736747
H        1.7725614303   -1.6290812450    0.2686799339
H        2.5612976647   -1.7530749504    1.8408218431
H        0.7870492865   -5.2789603106    1.3721570709
16   
torsion grid (60,)
C        0.8265402444   -2.9718179944    1.6207606056
C       -0.3347602076   -0.1515320247    1.1604995232
C        1.8276896745    0.6478358969    1.8750505047
C        1.5487235676   -1.6631957408    1.3035581929
N        0.9082866402   -0.4873664990    1.8553466580
O       -0.2408985668   -3.0808933400    2.1756431654
S        1.7797591359   -4.4123952197    1.0428601587
H       -1.0344391197   -0.9856242498    1.2251585697
H       -0.7943179880    0.7147587386    1.6451753444
H       -0.1686710156    0.0971637454    0.0945462272
H        2.7169150822    0.3996079789    2.4632851843
H        2.1552042863    0.9631356639    0.8659063890
H        1.3361315466    1.5008569493    2.3521998392
H        1.6665487886   -1.6204463017    0.2010715776
H        2.5599417814   -1.7524946084    1.7157166688
H        0.8597457329   -5.3028169176    1.4633578799
16   
torsion grid (75,)
C        0.8124261841   -2.9821879597    1.5719132035
C       -0.3433557157   -0.1171544942    1.1814749103
C        1.8415638762    0.6198513298    1.8886377662
C        1.5188323956   -1.6676905831    1.2435023632
N        0.9033557718   -0.5001351258    1.8469504986
O       -0.3317117033   -3.1018891151    1.9428505000
S        1.9061725613   -4.4107186786    1.3047925405
H       -1.0539481269   -0.9428308488    1.2191738416
H       -0.7821454019    0.7365023689    1.7063792671
H       -0.1834521599    0.1725022639    0.1248379589
H        2.7351260507    0.3403499884    2.4557543544
H        2.1586470239    0.9621381828    0.8850398244
H        1.3698423930    1.4644740457    2.3995464670
H        1.5639542951   -1.6085168577    0.1361525191
H        2.5536126133   -1.7516474417    1.5900875805
H        0.9434795258   -5.3182709981    1.5630428936
16   
torsion grid (90,)
C        0.7994646954   -2.9896943184    1.4960790326
C       -0.3504397260   -0.0955400656    1.2098315821
C        1.8548673302    0.5904460210    1.9007518902
C        1.4993196623   -1.6689950173    1.1736620876
N        0.9041953706   -0.5185815779    1.8367461493
O       -0.3894577387   -3.1354871664    1.6655153192
S        1.9704772091   -4.3738875878    1.5615621465
H       -1.0678724556   -0.9155581281    1.2217503951
H       -0.7702324492    0.7397051417    1.7782744449
H       -0.2039770807    0.2371529100    0.1639788801
H        2.7560934259    0.2823632727    2.4400750596
H        2.1554664604    0.9656462437    0.9039743767
H        1.4010917315    1.4201993050    2.4508090485
H        1.4916854186   -1.5776419616    0.0678604286
H        2.5475628098   -1.7531536763    1.4737275482
H        1.0141549196   -5.3121973180    1.7155380995
16   
torsion grid (105,)
C        0.4951003652   -2.8766638273    1.6631138764
C       -0.1873555362   -0.0028360128    0.6541382845
C        1.6829131844    0.6569775255    2.0255445972
C        1.4011285881   -1.6608274251    1.4579267445
N        0.7178445967   -0.4021890702    1.7345548078
O       -0.6113221661   -3.0087256242    1.1888343998
S        1.2761845440   -4.1498576186    2.6839733256
H       -0.9294835805   -0.7816789763    0.4809055497
H       -0.7073295240    0.9147908047    0.9450933105
H        0.3520793901    0.1895637915   -0.2932469086
H        2.2973964243    0.3791226547    2.8875426840
H        2.3543449699    0.8802376309    1.1747351501
H        1.1427174313    1.5739997118    2.2789793091
H        1.7865219843   -1.7237561667    0.4205478196
H        2.2637110400   -1.7475855797    2.1237274045
H        0.2640760250   -5.0324306469    2.5547828872
16   
torsion grid (120,)
C        0.5467312890   -2.8908079941    1.5708093867
C       -0.2095920175   -0.0215489233    0.7022965880
C        1.6904825155    0.6377518577    2.0337537731
C        1.4474490992   -1.6670422103    1.3908047425
N        0.7427533586   -0.4346188279    1.7353552777
O       -0.4511087483   -3.1099560663    0.9184886056
S        1.1371888846   -4.0086964630    2.8597560412
H       -0.9341913780   -0.8147832255    0.5184039052
H       -0.7463714199    0.8670663068    1.0476959219
H        0.2903522333    0.2232195940   -0.2542104905
H        2.3392830927    0.3447051446    2.8649084072
H        2.3278503769    0.9064906287    1.1700963944
H        1.1373499137    1.5316758796    2.3369317869
H        1.8172442639   -1.6823994497    0.3474683034
H        2.3173179586   -1.7643079515    2.0455249543
H        0.1457883142   -4.9086071288    2.6930696443
16   
torsion grid (135,)
C        0.6034307866   -2.9025161078    1.4949936133
C       -0.2265347797   -0.0527567943    0.7513927826
C        1.6987007072    0.6223961504    2.0428810063
C        1.4942429153   -1.6701621109    1.3287798559
N        0.7735096150   -0.4667463468    1.7367528132
O       -0.2667818183   -3.2213671090    0.7127873637
S        0.9715294477   -3.8417007616    2.9903123253
H       -0.9313519527   -0.8637512727    0.5630891737
H       -0.7818405218    0.8038675618    1.1447069107
H        0.2296729640    0.2391410875   -0.2132469185
H        2.3816669344    0.3195582029    2.8424505380
H        2.3000220187    0.9385175932    1.1696012931
H        1.1308317017    1.4889167236    2.3945697672
H        1.8334093063   -1.6445368379    0.2767606874
H        2.3796048320   -1.7770949436    1.9614259736
H        0.0084155802   -4.7636238639    2.7838960564
16   
torsion grid (150,)
C        0.6614701123   -2.9128222364    1.4281773365
C       -0.2517844016   -0.0981890929    0.8324910082
C        1.7215504766    0.6308554284    2.0190346159
C        1.5381752904   -1.6646779969    1.3119547039
N        0.8103111900   -0.4823042066    1.7628829234
O       -0.0070446613   -3.3560014071    0.5183176099
S        0.7129452195   -3.6647597240    3.0666241475
H       -0.9473039603   -0.9268765926    0.6859853378
H       -0.8078813376    0.7449195176    1.2526468007
H        0.1400378869    0.1993441957   -0.1579267663
H        2.4574918257    0.3436722855    2.7763171193
H        2.2631618638    0.9646677560    1.1139867451
H        1.1523990310    1.4811099754    2.4066248955
H        1.8801015550   -1.6028965265    0.2632581124
H        2.4202149904   -1.7907063787    1.9471567186
H       -0.1453173443   -4.6571938260    2.7536219334
16   
torsion grid (165,)
C        0.7132509006   -2.9188293054    1.3682096808
C       -0.2803371075   -0.1426420856    0.9286550822
C        1.7475971491    0.6479475776    1.9830004089
C        1.5710322573   -1.6545627026    1.3049395358
N        0.8494072730   -0.4878489574    1.7910573128
O        0.3311808045   -3.5266317385    0.3909554345
S        0.3701688673   -3.4542159031    3.0577397529
H       -0.9726125357   -0.9856882329    0.8576946773
H       -0.8211781460    0.7020206289    1.3647997860
H        0.0325740272    0.1321862665   -0.0953182460
H        2.5400821220    0.3792539678    2.6883495765
H        2.2192746781    0.9908721528    1.0432023915
H        1.1863672585    1.4857665381    2.4073715204
H        1.9445910044   -1.5730619930    0.2686693617
H        2.4415345493   -1.8124015313    1.9518002324
H       -0.2744053657   -4.5740235109    2.6700267343
16   
torsion grid (180,)
C        0.7608863579   -2.9426291109    1.3452226932
C       -0.2924137053   -0.1469840050    0.9563309327
C        1.7493364752    0.6275974841    2.0016880394
C        1.5730186753   -1.6543354055    1.2371927515
N        0.8614141098   -0.5100992462    1.7778724691
O        0.6036407183   -3.7236708808    0.4315361061
S        0.1433527322   -3.2348364974    3.0188101594
H       -0.9707463910   -0.9999923071    0.8642805200
H       -0.8406558943    0.6664195814    1.4400677682
H       -0.0061028728    0.1790940401   -0.0601420439
H        2.5588478448    0.3380515320    2.6786854271
H        2.1973089270    1.0175237431    1.0690827228
H        1.1870301162    1.4388516155    2.4736121676
H        1.9049613264   -1.5616955291    0.1884216104
H        2.4755367404   -1.8137894504    1.8401305637
H       -0.3068874237   -4.4713643929    2.7183613545
