
  -OEChem-12102412483D

 18 18  0     1  0  0  0  0  0999 V2000
    0.4444   -3.3205    0.9648 C   0  0  0  0  0  0  0  0  0  0  0  0
    0.1400   -2.2576   -0.0960 C   0  0  1  0  0  0  0  0  0  0  0  0
    1.0038   -2.1475   -0.7567 H   0  0  0  0  0  0  0  0  0  0  0  0
   -1.0113   -2.6484   -0.9796 C   0  0  0  0  0  0  0  0  0  0  0  0
   -2.3389   -2.6422   -0.5980 N   0  0  0  0  0  0  0  0  0  0  0  0
   -3.1249   -3.0903   -1.6763 C   0  0  0  0  0  0  0  0  0  0  0  0
   -4.3400   -3.1828   -1.7496 O   0  0  0  0  0  0  0  0  0  0  0  0
   -2.1476   -3.4038   -2.6047 N   0  0  0  0  0  0  0  0  0  0  0  0
   -0.8652   -3.1027   -2.1912 N   0  0  0  0  0  0  0  0  0  0  0  0
   -0.0824   -0.9679    0.5889 N   0  0  0  0  0  0  0  0  0  0  0  0
   -0.4077    0.1330   -0.1055 C   0  0  0  0  0  0  0  0  0  0  0  0
   -0.6619    1.0911   -0.7249 N   0  0  0  0  0  0  0  0  0  0  0  0
   -0.4074   -3.4638    1.6393 H   0  0  0  0  0  0  0  0  0  0  0  0
    0.6537   -4.2760    0.4801 H   0  0  0  0  0  0  0  0  0  0  0  0
    1.3166   -3.0255    1.5551 H   0  0  0  0  0  0  0  0  0  0  0  0
   -2.7454   -2.2133    0.2219 H   0  0  0  0  0  0  0  0  0  0  0  0
   -2.3214   -3.6848   -3.5596 H   0  0  0  0  0  0  0  0  0  0  0  0
   -0.4106   -1.0040    1.5469 H   0  0  0  0  0  0  0  0  0  0  0  0
  1  2  1  0  0  0  0
  1 13  1  0  0  0  0
  1 14  1  0  0  0  0
  1 15  1  0  0  0  0
  2  3  1  0  0  0  0
  2  4  1  0  0  0  0
  2 10  1  0  0  0  0
  4  5  1  0  0  0  0
  4  9  2  0  0  0  0
  5  6  1  0  0  0  0
  5 16  1  0  0  0  0
  6  7  2  0  0  0  0
  6  8  1  0  0  0  0
  8  9  1  0  0  0  0
  8 17  1  0  0  0  0
 10 11  1  0  0  0  0
 10 18  1  0  0  0  0
 11 12  3  0  0  0  0
M  END
$$$$
