18
0 1 C5H7N5O
C                     0.444444852979    -3.320503392247     0.964823677589
C                     0.140044055292    -2.257552685824    -0.096009674395
H                     1.003780275060    -2.147460261744    -0.756746552178
C                    -1.011344947955    -2.648412059598    -0.979622007158
N                    -2.338865780844    -2.642163328715    -0.597984308296
C                    -3.124929914682    -3.090303103359    -1.676337431824
O                    -4.339972438076    -3.182777530021    -1.749607546543
N                    -2.147555137926    -3.403807024386    -2.604717018879
N                    -0.865249751259    -3.102728083721    -2.191181771907
N                    -0.082366676262    -0.967898869238     0.588862007573
C                    -0.407728024511     0.132970067257    -0.105494757846
N                    -0.661943200736     1.091083560852    -0.724861270396
H                    -0.407426546962    -3.463787017505     1.639345320079
H                     0.653739646903    -4.276037924830     0.480135908467
H                     1.316646368212    -3.025470788057     1.555101181283
H                    -2.745394049491    -2.213250573009     0.221935609796
H                    -2.321389639960    -3.684809357395    -3.559564547149
H                    -0.410648622330    -1.003998163776     1.546861807444
