16   
torsion grid (-165,)
C       -0.3985307290    0.8322300092   -2.9705070522
C        0.3720554957    0.2251790852   -1.8725987295
C       -0.2555273506   -0.3559889135   -0.6197341481
C        0.1538231420    0.4353229864    0.6330940364
C       -0.4276400318   -0.1396173374    1.9099092577
O        0.3019394200    1.6617109480   -2.0231928427
F        0.0415040725   -1.4544813792    2.1133649517
H        0.0057798958    0.8417379213   -3.9827077860
H       -1.4856576164    0.8685919873   -2.8970841693
H        1.3611775095   -0.1652104111   -2.1193057226
H       -1.3481581732   -0.3753462794   -0.7049577305
H        0.0949027151   -1.3860333865   -0.4979171467
H        1.2466018273    0.4627422295    0.7194677484
H       -0.1810649573    1.4742576841    0.5382914840
H       -1.5213368819   -0.1966461728    1.8690530622
H       -0.1292435220    0.4439322128    2.7866300208
16   
torsion grid (-150,)
C       -0.3891984719    0.8897290343   -2.8967111576
C        0.3826728543    0.1298412224   -1.8979979656
C       -0.2184047226   -0.4139346648   -0.6076191968
C        0.0971778966    0.4771193975    0.6039858502
C       -0.4681219244   -0.0736642512    1.8985889242
O        0.5204712033    1.5654764897   -2.0098967043
F        0.0956884745   -1.3351043451    2.1834687504
H       -0.0928768660    0.8781587387   -3.9456550147
H       -1.4452317002    1.0856825512   -2.7076901321
H        1.2697133721   -0.3931838960   -2.2576787210
H       -1.3041979247   -0.5310500802   -0.7054786260
H        0.2038235356   -1.4050129304   -0.4167603706
H        1.1813539491    0.5983588708    0.7077712863
H       -0.3139061276    1.4804315205    0.4480814119
H       -1.5530257172   -0.2183202924    1.8403503210
H       -0.2359788142    0.5773044442    2.7474695472
16   
torsion grid (-135,)
C       -0.3660135249    0.9830566376   -2.7815064741
C        0.3960166663    0.0553134862   -1.9262724860
C       -0.1519147014   -0.4751372161   -0.6032360008
C        0.0506454289    0.4938882983    0.5693694266
C       -0.5046922766   -0.0456312049    1.8734271564
O        0.7424415749    1.4578468563   -2.0000498595
F        0.1509218168   -1.2425251148    2.2293108695
H       -0.2125413227    0.9913555650   -3.8606397006
H       -1.3454172787    1.3246475282   -2.4429808372
H        1.1310193430   -0.5778224399   -2.4234834457
H       -1.2204442802   -0.7011349755   -0.7108768157
H        0.3412289493   -1.4228087472   -0.3689096271
H        1.1156798186    0.7160824166    0.6920720537
H       -0.4406815777    1.4511494149    0.3613825470
H       -1.5723339384   -0.2812626407    1.7954214348
H       -0.3497968046    0.6587281743    2.6969586828
16   
torsion grid (-120,)
C       -0.3241904327    1.0539092644   -2.6857703314
C        0.3807442468   -0.0175635451   -1.9592999439
C       -0.1052940569   -0.5315193439   -0.6086436098
C       -0.0096317608    0.5013693824    0.5198962999
C       -0.5328529234   -0.0302243057    1.8411165696
O        0.9241355227    1.3204744685   -2.0264624752
F        0.2228456465   -1.1457877794    2.2554792329
H       -0.2935253330    1.0927481200   -3.7745992697
H       -1.1952513121    1.5218904224   -2.2243875529
H        0.9432868376   -0.7306044310   -2.5623237023
H       -1.1468521347   -0.8634689116   -0.7169642163
H        0.4634817070   -1.4251753812   -0.3353896693
H        1.0274272048    0.8274426646    0.6413026333
H       -0.5874998051    1.3997655351    0.2708313355
H       -1.5737779095   -0.3646539734    1.7630662648
H       -0.4533188692    0.7204023812    2.6339734923
16   
torsion grid (-105,)
C       -0.2475116229    1.1144964567   -2.6127544016
C        0.3454331988   -0.0717828622   -1.9696872057
C       -0.0876115633   -0.5689583670   -0.6001074152
C       -0.0822657940    0.5005166345    0.4968766361
C       -0.5384646361   -0.0406955638    1.8395741450
O        1.0758875286    1.1708584282   -2.0505402447
F        0.3283760022   -1.0620078507    2.2769008768
H       -0.2918874290    1.1785080235   -3.6998568464
H       -0.9972291304    1.6992119271   -2.0792611314
H        0.7404715857   -0.8403573297   -2.6355416878
H       -1.0954063994   -0.9960700101   -0.7006853442
H        0.5581901294   -1.4005676619   -0.3007135969
H        0.9195060794    0.9276899849    0.5952080915
H       -0.7513950575    1.3301110660    0.2354827105
H       -1.5414844998   -0.4791464584    1.7837741544
H       -0.5270939566    0.7380659249    2.6088481583
16   
torsion grid (-90,)
C       -0.1588766944    1.1663363867   -2.5727596273
C        0.2757202185   -0.1152357409   -1.9881874051
C       -0.1188819729   -0.5917380383   -0.6038552440
C       -0.1895851866    0.5020226146    0.4660260387
C       -0.4960881780   -0.0512954754    1.8463347331
O        1.1891938153    0.9952980569   -2.0936319758
F        0.5229127052   -0.9317254215    2.2593240335
H       -0.2552045684    1.2606013691   -3.6542953712
H       -0.7679797305    1.8547430838   -1.9883474918
H        0.5013465431   -0.9186823992   -2.6919153700
H       -1.0911410141   -1.0970816210   -0.6906005865
H        0.5938971396   -1.3606465490   -0.2864406979
H        0.7548818696    1.0532424165    0.4952816960
H       -0.9769412011    1.2288019040    0.2279809092
H       -1.4319858760   -0.6216500977    1.8588346926
H       -0.5500486851    0.7472402861    2.5931902756
16   
torsion grid (-75,)
C       -0.0529333265    1.2089651935   -2.5336407523
C        0.2216522778   -0.1389013765   -2.0032068090
C       -0.1310576050   -0.6077473688   -0.6069656894
C       -0.2869070565    0.5027374960    0.4363081397
C       -0.4977234837   -0.0376999127    1.8398405963
O        1.2792993432    0.8315784438   -2.1346564655
F        0.6180175978   -0.7935678512    2.2474614097
H       -0.1915022316    1.3475267113   -3.6058522773
H       -0.5245053964    1.9602308513   -1.9021603677
H        0.2964991078   -0.9446847597   -2.7363176879
H       -1.0556572056   -1.1977083930   -0.6708306952
H        0.6557070011   -1.2951834015   -0.2760441226
H        0.5984565304    1.1467867231    0.4271120135
H       -1.1522181133    1.1358583458    0.2010383648
H       -1.3679877927   -0.7018949533    1.8936166958
H       -0.6171417725    0.7729180387    2.5658249028
16   
torsion grid (-60,)
C        1.7208549734    0.5128656885   -2.1335671013
C        0.4099095948   -0.1446567238   -1.9823714671
C       -0.3547131255   -0.2944050584   -0.6825546111
C        0.4197227946    0.0965338985    0.5809510414
C       -0.3557850480   -0.1865767401    1.8558639129
O        1.6135419256   -0.9247012238   -2.1276508525
F       -0.6138650331   -1.5651090502    1.9768920752
H        1.9950555326    0.9519435788   -3.0928091504
H        2.2227893160    0.9375826089   -1.2660431947
H       -0.2192336575   -0.1823788143   -2.8742068436
H       -1.2779245249    0.2949444169   -0.7535995568
H       -0.6463399135   -1.3468862640   -0.5935160738
H        1.3715292159   -0.4447076320    0.6170537332
H        0.6530186538    1.1692180741    0.5732264458
H       -1.3274859131    0.3205511117    1.8607887641
H        0.2112909986    0.1117689528    2.7435238961
16   
torsion grid (-45,)
C        1.7583853166    0.4512129345   -2.1239413255
C        0.3912858590   -0.0850391641   -1.9863881655
C       -0.3365668187   -0.3327284900   -0.6765794436
C        0.3995335568    0.1393963795    0.5837023554
C       -0.3706323424   -0.1556847980    1.8591937182
O        1.4999291130   -0.9563243088   -2.2905500451
F       -0.5465762930   -1.5435987586    2.0143355857
H        2.0384732157    0.9818226757   -3.0341486712
H        2.3348022036    0.7098304313   -1.2376178958
H       -0.2682683821    0.0535892946   -2.8453842226
H       -1.3220977831    0.1457290802   -0.7281507527
H       -0.4964047900   -1.4125670833   -0.5892300453
H        1.3818504840   -0.3414846266    0.6491983754
H        0.5694736533    1.2233997614    0.5450227981
H       -1.3708331415    0.2922680556    1.8412765504
H        0.1678808616    0.1994606811    2.7437904956
16   
torsion grid (-30,)
C        1.7801775803    0.3735969095   -2.1353496348
C        0.3666620369   -0.0246520114   -1.9849494015
C       -0.3084950525   -0.3764307540   -0.6662037814
C        0.3731890144    0.1827987905    0.5905737956
C       -0.3957797113   -0.1247195384    1.8635883074
O        1.3518621226   -0.9531020906   -2.4874812645
F       -0.4754022756   -1.5161587241    2.0608952743
H        2.0756909898    1.0048694122   -2.9738741698
H        2.4248363190    0.4306989989   -1.2599960645
H       -0.3117110635    0.3144001251   -2.7695661249
H       -1.3447738150   -0.0200685589   -0.7009166528
H       -0.3433446633   -1.4672825992   -0.5875847487
H        1.3850750889   -0.2248141117    0.6898808685
H        0.4713718080    1.2739413234    0.5170528455
H       -1.4246337154    0.2501309337    1.8159598448
H        0.1010001225    0.2956422271    2.7440536607
16   
torsion grid (-15,)
C        1.8103882438    0.2571039230   -2.1460774697
C        0.3597638468    0.0366785161   -1.9711150052
C       -0.2740709584   -0.3974730360   -0.6552477864
C        0.3275290805    0.2541761866    0.5978429495
C       -0.4105071258   -0.1202681897    1.8710208130
O        1.1841308806   -0.9268543770   -2.6624904130
F       -0.3251623090   -1.5078338088    2.0917437233
H        2.1631828373    0.9634003765   -2.8981402165
H        2.4877098690    0.0890456283   -1.3100265683
H       -0.2942481150    0.5853897586   -2.6500172405
H       -1.3444321042   -0.1606165021   -0.6951972050
H       -0.2050756959   -1.4865520847   -0.5816529896
H        1.3799139494   -0.0264208709    0.7108892461
H        0.2981206126    1.3481127275    0.5057233308
H       -1.4761535196    0.1284397653    1.8101813355
H        0.0253382431    0.3708503634    2.7471067539
16   
torsion grid (0,)
C        1.8333057234    0.1378195902   -2.1667559318
C        0.3709931142    0.1044023086   -1.9565285423
C       -0.2372500195   -0.4015348839   -0.6587522254
C        0.2735982020    0.3284253638    0.5906415197
C       -0.4094656521   -0.1287593619    1.8671750494
O        1.0251534308   -0.8585534003   -2.8099247932
F       -0.1411217195   -1.4911131213    2.0986700974
H        2.2716571698    0.8819660099   -2.8319096404
H        2.4952632599   -0.2444131634   -1.3899339358
H       -0.2192585765    0.8338716227   -2.5128033095
H       -1.3270981638   -0.2826166200   -0.7165606129
H       -0.0638329642   -1.4791688613   -0.5890476273
H        1.3542931627    0.1887315814    0.7007991808
H        0.1033869974    1.4090159126    0.4913359708
H       -1.4985159612   -0.0237823880    1.8049071480
H       -0.0426322306    0.4227213931    2.7389087088
16   
torsion grid (15,)
C        1.8386562924    0.0112625474   -2.1939589213
C        0.3947239816    0.1537175817   -1.9216256645
C       -0.2141912760   -0.3960779820   -0.6482304468
C        0.2054618788    0.3925742097    0.5988812798
C       -0.4190885810   -0.1369377851    1.8774023091
O        0.8774111594   -0.7958633584   -2.8928564085
F        0.0064569939   -1.4580287556    2.1130050582
H        2.3561776662    0.7509662916   -2.8045914543
H        2.4620778108   -0.5328769481   -1.4837899225
H       -0.1124132419    1.0100496602   -2.3696203654
H       -1.3083411336   -0.3736225534   -0.7390251327
H        0.0555663800   -1.4525711341   -0.5604569817
H        1.2960616769    0.3802167524    0.7052429676
H       -0.0894190474    1.4459732151    0.4975676781
H       -1.5128824134   -0.1597896733    1.8155018843
H       -0.1185006055    0.4562379060    2.7470809354
16   
torsion grid (30,)
C        1.8361100346   -0.0665208246   -2.2611747990
C        0.4370643710    0.1994749583   -1.8780553614
C       -0.1631852500   -0.4002675997   -0.6277925645
C        0.1582377500    0.4323307697    0.6203477291
C       -0.4543450920   -0.1327430185    1.8892978953
O        0.7478746796   -0.7004431027   -2.9586742635
F        0.0566639200   -1.4206579964    2.1416653965
H        2.3938779864    0.6674129354   -2.8422929969
H        2.4358514178   -0.7363094799   -1.6441799632
H       -0.0004259982    1.1424267686   -2.2131442411
H       -1.2517119223   -0.4741271279   -0.7520478981
H        0.2052936904   -1.4241328915   -0.5155388695
H        1.2438470154    0.5086265663    0.7523099255
H       -0.2179335167    1.4575407802    0.4995050540
H       -1.5423339827   -0.2313478786    1.8049944622
H       -0.2126023897    0.4831830751    2.7614226009
16   
torsion grid (45,)
C        1.8324923251   -0.1434659269   -2.3461072757
C        0.5061690673    0.2469990566   -1.8368417808
C       -0.1057439263   -0.3900855740   -0.6119067916
C        0.1150973399    0.4661703770    0.6427541453
C       -0.4605901345   -0.1600664488    1.9002815504
O        0.6293386087   -0.5797332617   -3.0088046071
F        0.1837221571   -1.3826736880    2.1708018250
H        2.4354126241    0.5707632265   -2.9064779433
H        2.3857586140   -0.9310799946   -1.8340901969
H        0.1639813653    1.2603499147   -2.0609170923
H       -1.1807714414   -0.5310650136   -0.7825046554
H        0.3306825428   -1.3824371616   -0.4651092497
H        1.1865781929    0.6433883747    0.7943883034
H       -0.3543484324    1.4515522351    0.5185484644
H       -1.5286423003   -0.3791353788    1.7913452145
H       -0.3096543528    0.4811989410    2.7745741574
16   
torsion grid (60,)
C        1.8128427212   -0.2048752965   -2.4385395322
C        0.5826540871    0.2786228084   -1.7886779073
C       -0.0316456386   -0.3898127884   -0.5791204375
C        0.0787015791    0.4943902388    0.6713278678
C       -0.4873195899   -0.1630694872    1.9171805442
O        0.5207588799   -0.4493324715   -3.0295677429
F        0.2459171538   -1.3248446044    2.2276564393
H        2.4492575086    0.4878151061   -2.9891232525
H        2.3101955533   -1.0886594799   -2.0387755928
H        0.3408074226    1.3379231821   -1.9075825026
H       -1.0856930977   -0.6062306940   -0.7922510730
H        0.4712750850   -1.3420602102   -0.3866625065
H        1.1268128181    0.7584258805    0.8573040182
H       -0.4633743422    1.4375687273    0.5188061049
H       -1.5290011459   -0.4715261690    1.7745258248
H       -0.4211575422    0.4984036034    2.7868913179
16   
torsion grid (75,)
C        1.7735070211   -0.2617846753   -2.5327871471
C        0.6624172856    0.3015378115   -1.7463671042
C        0.0461890794   -0.3926956189   -0.5466685709
C        0.0325952577    0.5167476055    0.6902905627
C       -0.5386202830   -0.1621451310    1.9220841754
O        0.4221181840   -0.2997209027   -3.0331760858
F        0.2658889579   -1.2589505373    2.2883736557
H        2.4494447580    0.3984222847   -3.0763517392
H        2.1847520052   -1.2298961843   -2.2470815663
H        0.5449358860    1.3880382537   -1.7642693227
H       -0.9773724753   -0.6903293197   -0.8027947596
H        0.6080672300   -1.2995098062   -0.3040263520
H        1.0478091265    0.8633527942    0.9187809320
H       -0.5719434927    1.4128292694    0.4948558883
H       -1.5460190035   -0.5522526288    1.7389050335
H       -0.5633986037    0.5163714029    2.7807151373
16   
torsion grid (90,)
C        1.7166170313   -0.3261739476   -2.6192436012
C        0.7561514187    0.3079075335   -1.6990532692
C        0.1523368314   -0.4044463640   -0.4978287159
C        0.0024979069    0.5291537049    0.7108413767
C       -0.5790805534   -0.1633116439    1.9300422016
O        0.3398660852   -0.1496907495   -3.0022101595
F        0.2857226097   -1.1866594004    2.3656770057
H        2.4333740377    0.2828414674   -3.1705807111
H        2.0147199218   -1.3591269902   -2.4388859740
H        0.7855925579    1.3977283827   -1.6303487632
H       -0.8286439181   -0.7971894236   -0.7885812873
H        0.7729352000   -1.2568821265   -0.2056407037
H        0.9738786515    0.9603089233    0.9820158095
H       -0.6586685519    1.3693144717    0.4589693865
H       -1.5432155866   -0.6337175607    1.7071500510
H       -0.6996485484    0.5307674572    2.7678647513
16   
torsion grid (105,)
C        1.6302546807   -0.3547648261   -2.6989179191
C        0.8519191004    0.3375044837   -1.6561552964
C        0.2625189722   -0.3938980312   -0.4574540611
C       -0.0367493094    0.5442873846    0.7181402386
C       -0.6198803121   -0.1743428086    1.9212793710
O        0.2741878483    0.0537669817   -2.9489024189
F        0.3077489073   -1.1072643399    2.4257275222
H        2.3899718436    0.1830566480   -3.2664492064
H        1.7771934336   -1.4320780799   -2.6170248353
H        1.0563530313    1.4001933749   -1.5109824185
H       -0.6617572270   -0.8829082258   -0.7861403727
H        0.9365714571   -1.1897260459   -0.1253591761
H        0.8757155010    1.0666507827    1.0303162213
H       -0.7553771689    1.3156029160    0.4102724886
H       -1.5248108191   -0.7339279549    1.6596958676
H       -0.8469539047    0.5217606547    2.7349596286
16   
torsion grid (120,)
C       -0.2760207806    0.4350658062   -3.1412883712
C        0.2283169896    0.6882258720   -1.7800216794
C       -0.4167815165    0.0443041713   -0.5644861317
C        0.3251284099    0.3466293456    0.7419653471
C       -0.3304007453   -0.2795273152    1.9593461040
O       -0.5413597381    1.6869072288   -2.4874852280
F       -0.3292052334   -1.6838578662    1.8425414110
H        0.3979740081    0.4895160828   -3.9962892091
H       -1.1464048477   -0.2096755741   -3.2688088022
H        1.2826264338    0.9537936405   -1.6826395310
H       -1.4444834542    0.4222260515   -0.5025495799
H       -0.5023979336   -1.0375339180   -0.7115013136
H        1.3618419550   -0.0060143953    0.6807548741
H        0.3666480031    1.4315688791    0.9059210473
H       -1.3761920292    0.0309624602    2.0608786687
H        0.2107958793   -0.0352033711    2.8789154889
16   
torsion grid (135,)
C       -0.3431664893    0.5132031184   -3.1246613586
C        0.2842247101    0.5989630800   -1.7946321723
C       -0.3626548901   -0.0359512943   -0.5819192928
C        0.2995299756    0.3752209491    0.7375502153
C       -0.3582299102   -0.2468872097    1.9556341588
O       -0.3836615584    1.7409065775   -2.3767373967
F       -0.2486249324   -1.6510496041    1.9023251376
H        0.2731135233    0.5372231493   -4.0232004421
H       -1.3030929656    0.0055728763   -3.2252186973
H        1.3701069040    0.7075363422   -1.7611753664
H       -1.4170996554    0.2665283627   -0.5769825668
H       -0.3617745826   -1.1262660987   -0.6919103901
H        1.3611044831    0.0996535146    0.7314439600
H        0.2534990990    1.4660861454    0.8518297647
H       -1.4274484090   -0.0124424220    2.0027742701
H        0.1242891268    0.0760268952    2.8835669513
16   
torsion grid (150,)
C       -0.3745937577    0.6011577049   -3.0952278607
C        0.3276815047    0.5073711092   -1.8044006619
C       -0.3210617412   -0.1172611084   -0.5923218478
C        0.2754641179    0.3952463694    0.7238313966
C       -0.3731075794   -0.2164663941    1.9516863856
O       -0.2199732462    1.7639927800   -2.2602606189
F       -0.1704634263   -1.6114522948    1.9637382326
H        0.1936124580    0.6209255324   -4.0248825959
H       -1.3949717822    0.2251533196   -3.1739258149
H        1.4191807453    0.4802249639   -1.8294916522
H       -1.3935236676    0.1103900863   -0.6259505463
H       -0.2312573416   -1.2080691642   -0.6545733394
H        1.3529757337    0.1929467954    0.7559561417
H        0.1524541658    1.4841268338    0.7841535187
H       -1.4563444798   -0.0522096661    1.9622394810
H        0.0613421112    0.1772632212    2.8760080729
16   
torsion grid (165,)
C       -0.3934599942    0.6821644752   -3.0604949229
C        0.3509572955    0.4019533149   -1.8219637201
C       -0.2950629262   -0.2201347087   -0.6083942615
C        0.2439471329    0.3833218425    0.6956140802
C       -0.3900475420   -0.2164961868    1.9363642923
O       -0.0636393806    1.7472440937   -2.1478484459
F       -0.1084770895   -1.5962603896    2.0084574376
H        0.1304043199    0.7134331068   -4.0156350707
H       -1.4535014171    0.4331011671   -3.1125567104
H        1.4300598509    0.2568324127   -1.9082781007
H       -1.3797844386   -0.0703341390   -0.6648683974
H       -0.1138143815   -1.3011385184   -0.6188197828
H        1.3311064060    0.2498892585    0.7533449167
H        0.0532249878    1.4635692199    0.7046006205
H       -1.4810080432   -0.1150923973    1.9236282775
H        0.0043893186    0.2379249586    2.8507453910
16   
torsion grid (180,)
C       -0.4033346050    0.7603621452   -3.0185402825
C        0.3615895770    0.3109286062   -1.8440770039
C       -0.2772545149   -0.2959835252   -0.6161770612
C        0.2044913361    0.4011471716    0.6652448223
C       -0.4013893496   -0.1874839880    1.9247370307
O        0.1057230979    1.7158859253   -2.0668833061
F       -0.0270487873   -1.5406082406    2.0603632290
H        0.0698174557    0.7883352781   -3.9999860834
H       -1.4875704068    0.6476621263   -3.0212838599
H        1.4093396103    0.0466378111   -2.0024884509
H       -1.3689883133   -0.2274962358   -0.6873949368
H       -0.0078795175   -1.3566463767   -0.5630586920
H        1.2974856346    0.3447683564    0.7370413267
H       -0.0576371351    1.4648472252    0.6229100633
H       -1.4966124049   -0.1625998318    1.8983082116
H       -0.0500403888    0.3318969039    2.8219543089
