27   
torsion grid (-165,)
C        0.8412751853   -0.7217224524    0.4770731078
C        0.9260062644   -0.4423425209    1.7905420063
C        3.0969680675   -3.3315969146   -1.3570264324
C        2.0878750949   -2.8090070109   -0.3245019559
C        4.3918703942   -2.5158832697   -1.3174263945
C        3.2369505385   -0.5612859116   -0.4569042016
C        1.8769407858   -1.2876233677   -0.4756951237
C       -0.2401866043    0.1938357037    2.5138403737
C        2.1121759470   -0.7297102905    2.6836081825
N        4.0846255283   -1.0964559052   -1.5303655509
H       -0.1062382574   -0.4705255853   -0.0008255805
H        3.3183112823   -4.3897415382   -1.1738270471
H        2.6667351399   -3.2540573426   -2.3627621456
H        1.1282945529   -3.3285321855   -0.4254468958
H        2.4525256712   -3.0242218890    0.6880759763
H        4.8982012933   -2.6923445441   -0.3479070912
H        5.0737260369   -2.8474741289   -2.1081409451
H        3.0789482746    0.5079826268   -0.6328428183
H        3.7157759682   -0.6649896759    0.5299857166
H        1.5002411314   -1.1066163807   -1.4901608653
H       -0.6095760216   -0.4581203220    3.3164106317
H        0.0644929759    1.1349321582    2.9911182915
H       -1.0723947392    0.4108819880    1.8385602233
H        2.6378763997    0.1972169994    2.9484442479
H        1.7713981767   -1.1760224161    3.6260986891
H        2.8350683011   -1.4104047297    2.2354287367
H        4.9505444081   -0.5636685566   -1.5720135266
27   
torsion grid (-150,)
C        0.8563325519   -0.8086155591    0.5354678315
C        0.9226350341   -0.4115431930    1.8189713253
C        3.0447258788   -3.3056936473   -1.4976775713
C        2.0534243256   -2.8364442644   -0.4227097933
C        4.3768659387   -2.5599289527   -1.3800938112
C        3.3171779601   -0.6623693929   -0.3044255431
C        1.9204818211   -1.2983479114   -0.4251146379
C       -0.3144205692    0.1086535267    2.5180434374
C        2.1553815733   -0.4435680124    2.6992010311
N        4.1390440825   -1.1120606523   -1.4369877063
H       -0.1309829540   -0.7487046634    0.0748233446
H        3.2160426747   -4.3855795921   -1.4157309812
H        2.6231587111   -3.1135098976   -2.4915890372
H        1.0717754844   -3.2988731553   -0.5771201587
H        2.3976984707   -3.1577627940    0.5698240664
H        4.8751241283   -2.8622479647   -0.4379849134
H        5.0410761573   -2.8374733875   -2.2058644618
H        3.2297812003    0.4287133099   -0.3410437464
H        3.7847562267   -0.9274526055    0.6563973170
H        1.5854303167   -0.9978909872   -1.4268304924
H       -0.5797793079   -0.5263472488    3.3736288820
H       -0.1385000492    1.1158476520    2.9193505469
H       -1.1762677473    0.1580238959    1.8468546081
H        2.6918368013    0.5136129346    2.6740799243
H        1.8674093912   -0.6169251735    3.7422401528
H        2.8572793435   -1.2285812434    2.4163439329
H        5.0309443507   -0.6224284825   -1.4187139372
27   
torsion grid (-135,)
C        0.9391667401   -0.8412948276    0.5951693783
C        0.9472947767   -0.3306676371    1.8400804620
C        2.9455768203   -3.2700671777   -1.6524761660
C        1.9841914800   -2.8161975499   -0.5448072487
C        4.3471492594   -2.6967225641   -1.4295578005
C        3.4600865808   -0.8311952009   -0.1553649728
C        2.0099868226   -1.2777344952   -0.3795813127
C       -0.3670891429   -0.0530822268    2.5414475895
C        2.1464004827    0.0312916287    2.6857388918
N        4.2676472470   -1.2352333219   -1.3146711882
H       -0.0547848736   -1.0343318504    0.1851555743
H        2.9943672624   -4.3646693397   -1.6918930127
H        2.5746475698   -2.9215447194   -2.6237942035
H        0.9646237254   -3.1541308127   -0.7639663629
H        2.2688831391   -3.2750413916    0.4117980554
H        4.7844034319   -3.1608612032   -0.5240044745
H        4.9992095877   -2.9458320750   -2.2738198938
H        3.5134791511    0.2577495152   -0.0551484136
H        3.8477589245   -1.2805050522    0.7757684631
H        1.7213965929   -0.8600131454   -1.3551802803
H       -0.4329702360   -0.6139824517    3.4833088717
H       -0.4548411466    1.0095576635    2.8040047322
H       -1.2285421633   -0.3228788953    1.9245725949
H        2.0897085069    1.0851478125    2.9880088809
H        2.1420136732   -0.5557665957    3.6137603611
H        3.1030025378   -0.1262544777    2.1955930209
H        5.2056650456   -0.8532370707   -1.2168019369
27   
torsion grid (-120,)
C        0.9574310585   -0.9365238470    0.6635213940
C        0.9564349095   -0.3202751700    1.8597207826
C        2.9312216131   -3.2255233526   -1.7531338616
C        1.9528079487   -2.8213473703   -0.6425145698
C        4.3432870640   -2.7298385509   -1.4362801894
C        3.4785747853   -0.9159129755   -0.0657881599
C        2.0215534556   -1.3043948950   -0.3466830079
C       -0.3568949423   -0.1111010154    2.5870619962
C        2.1378406898    0.2258705499    2.6287069503
N        4.3103884661   -1.2790747208   -1.2207689468
H       -0.0281176002   -1.2473467301    0.3087260053
H        2.9375754886   -4.3146311611   -1.8788802407
H        2.6101117849   -2.7847981478   -2.7045100482
H        0.9292645099   -3.1014784171   -0.9179102826
H        2.1904896117   -3.3680808595    0.2802859386
H        4.7248499972   -3.2741425221   -0.5503690424
H        5.0203625984   -2.9438734484   -2.2704014762
H        3.5622101041    0.1648041487    0.0830724455
H        3.8209168319   -1.4176275963    0.8579617124
H        1.7538879377   -0.7863572932   -1.2801614891
H       -0.3445116173   -0.6056789757    3.5674039845
H       -0.5323849287    0.9560578867    2.7778497842
H       -1.2081852535   -0.4988720879    2.0210947352
H        2.0321163843    1.3106980163    2.7617687489
H        2.1587059596   -0.2070996927    3.6373336615
H        3.1019012694    0.0360481839    2.1659065227
H        5.2565936696   -0.9369974185   -1.0696737384
27   
torsion grid (-105,)
C        0.9871432735   -1.0273121676    0.7398896036
C        0.9619896363   -0.3162411767    1.8820741497
C        2.9175158481   -3.1700546780   -1.8433246531
C        1.9260846692   -2.8081852307   -0.7312773344
C        4.3372752604   -2.7631301490   -1.4477874294
C        3.5037865999   -1.0017151742    0.0173717971
C        2.0387476275   -1.3251812483   -0.3089102026
C       -0.3423802003   -0.1761015397    2.6411717098
C        2.1068070210    0.4067894618    2.5560280319
N        4.3540533618   -1.3314641206   -1.1334830143
H        0.0238841919   -1.4523451716    0.4479542988
H        2.8802135959   -4.2458135995   -2.0515047004
H        2.6465754934   -2.6442891936   -2.7666808142
H        0.9002644566   -3.0239959498   -1.0525787176
H        2.1166406585   -3.4357431899    0.1504015130
H        4.6652051066   -3.3842522212   -0.5913733887
H        5.0335163950   -2.9471735442   -2.2732920443
H        3.6212093408    0.0674627205    0.2117198692
H        3.8032930913   -1.5510255897    0.9301184235
H        1.7928067789   -0.7105859215   -1.1885822477
H       -0.2597765318   -0.6091137861    3.6468547259
H       -0.6011764978    0.8825164903    2.7773988760
H       -1.1741520812   -0.6646910438    2.1265615701
H        1.9771108167    1.4935163273    2.4639108618
H        2.1059601836    0.1858893195    3.6307297026
H        3.0883866867    0.1504597450    2.1673810687
H        5.3074470128   -1.0357168308   -0.9374320460
27   
torsion grid (-90,)
C        0.3455181644   -1.2664358922    0.1489300716
C       -0.3641847645   -0.1249072888    0.1084857249
C        3.5235729412   -3.3311905737   -0.6291693497
C        2.3179991430   -2.7797156899    0.1392494687
C        4.3846557816   -2.1864816275   -1.1638678619
C        2.4606132664   -0.6890215146   -1.2318839700
C        1.5015964527   -1.7668038786   -0.6986038211
C       -1.4117767420    0.1541871342    1.1640329516
C       -0.2495097652    0.9562971185   -0.9486592429
N        3.5522869515   -1.3099167235   -1.9923998182
H        0.0940888427   -1.9457456377    0.9654492422
H        4.1238591425   -3.9810408984    0.0183957558
H        3.1784700594   -3.9359075733   -1.4764503665
H        1.6649631674   -3.5996678425    0.4613082767
H        2.6657210664   -2.2775808288    1.0532329105
H        4.8390963970   -1.6483020482   -0.3091061208
H        5.2024112808   -2.5764087271   -1.7798939935
H        1.9476633780   -0.0025135907   -1.9052607922
H        2.8248867208   -0.0969589863   -0.3700069371
H        1.1075498931   -2.3285479790   -1.5592600306
H       -1.2107274058    1.1107190803    1.6651027859
H       -2.4103280553    0.2403876150    0.7156269416
H       -1.4444947506   -0.6274448548    1.9280991860
H       -1.1903712657    1.5119130186   -1.0239873608
H        0.5313947419    1.6856506399   -0.7002525764
H       -0.0291615471    0.5513432119   -1.9383400370
H        4.1287281722   -0.5788529773   -2.4024413553
27   
torsion grid (-75,)
C        0.4074405542   -1.2059493358    0.2474588335
C       -0.3711434456   -0.1185235863    0.1115169540
C        3.4602369185   -3.3640656900   -0.7666769215
C        2.2870012122   -2.8419770501    0.0703952141
C        4.3865782945   -2.2148824027   -1.1686191530
C        2.5558289983   -0.6154331445   -1.0327670939
C        1.5331076242   -1.6976888545   -0.6445966301
C       -1.3522701161    0.2708931238    1.1933852910
C       -0.4035630150    0.7696359383   -1.1127419836
N        3.6096254768   -1.1922378897   -1.8766478231
H        0.2886318295   -1.7721052697    1.1728326895
H        4.0243053892   -4.1187214980   -0.2060541962
H        3.0808194473   -3.8442312072   -1.6767565251
H        1.5889113903   -3.6559272989    0.3003321820
H        2.6638230002   -2.4687581388    1.0335107045
H        4.8749273052   -1.8134008388   -0.2592012386
H        5.1777684187   -2.5760312265   -1.8348551399
H        2.0842859573    0.1925143369   -1.5936558355
H        2.9529743941   -0.1758465937   -0.0975647209
H        1.1203359705   -2.1462951652   -1.5602726760
H       -1.1735304884    1.3023407717    1.5256644296
H       -2.3851484831    0.2365462968    0.8226322150
H       -1.2788860776   -0.3831392897    2.0667686679
H       -1.4374764798    1.0527962869   -1.3438299354
H        0.1476197299    1.7044330664   -0.9458375079
H        0.0118129504    0.2824003470   -1.9969603498
H        4.2305045112   -0.4492930018   -2.1891297687
27   
torsion grid (-60,)
C        0.4802630209   -1.1301481318    0.3410313354
C       -0.3744830551   -0.1164502907    0.1215496381
C        3.4025347828   -3.3736728084   -0.8719938314
C        2.2610695718   -2.8722891475    0.0210672611
C        4.3809351867   -2.2392241441   -1.1848794813
C        2.6346958500   -0.5719563774   -0.8935124863
C        1.5662657225   -1.6364993157   -0.5867727360
C       -1.3354436418    0.3445944722    1.1917275977
C       -0.4929893755    0.6162194447   -1.1949698647
N        3.6533282948   -1.1212177404   -1.7961463681
H        0.4590084426   -1.5921797964    1.3294642495
H        3.9348691680   -4.1998282622   -0.3861639010
H        2.9934585614   -3.7548865255   -1.8154431595
H        1.5247680719   -3.6678170944    0.1871284602
H        2.6628996826   -2.6034216632    1.0086249319
H        4.8939301127   -1.9412197428   -0.2495993116
H        5.1494981040   -2.5807095601   -1.8869698844
H        2.1839648457    0.2994537501   -1.3742885880
H        3.0602221909   -0.2298400691    0.0695238187
H        1.1244866426   -1.9742190466   -1.5347513123
H       -1.1990692629    1.4134769246    1.4037758493
H       -2.3772204910    0.2205777126    0.8678733547
H       -1.1994193687   -0.2064688956    2.1265534399
H       -1.5473461859    0.7087024286   -1.4839869846
H       -0.1004435887    1.6387001798   -1.1155317268
H        0.0346334691    0.1131254785   -2.0077475299
H        4.3101045151   -0.3857490936   -2.0472330889
27   
torsion grid (-45,)
C        0.5594087878   -1.0312610113    0.3966596470
C       -0.3832519777   -0.1132324924    0.1235005884
C        3.3453774037   -3.3768327926   -0.9454630581
C        2.2282037365   -2.8728906124   -0.0226871373
C        4.3837000584   -2.2784034387   -1.1876844357
C        2.7296543148   -0.5403417441   -0.7995508376
C        1.6083092154   -1.5659822924   -0.5526061739
C       -1.3325826767    0.3796475513    1.1895598780
C       -0.5928375641    0.4951671633   -1.2430586245
N        3.7207564680   -1.0879168424   -1.7328214670
H        0.6243684943   -1.3956459110    1.4234441052
H        3.8322840574   -4.2581077798   -0.5115921984
H        2.9204503068   -3.6772766548   -1.9107709536
H        1.4489409808   -3.6354584707    0.0930367597
H        2.6410748749   -2.6890891950    0.9797545041
H        4.9072129144   -2.0649899156   -0.2352318843
H        5.1365828083   -2.6180091898   -1.9074249774
H        2.3114636725    0.3742655589   -1.2305603760
H        3.1717374238   -0.2689578881    0.1786248766
H        1.1527347494   -1.7995920665   -1.5233701547
H       -1.2485962633    1.4672292128    1.3165353060
H       -2.3756045787    0.1767948389    0.9128992319
H       -1.1381031426   -0.0915138072    2.1571941046
H       -1.6415359752    0.3960324751   -1.5510851633
H       -0.3738199449    1.5710368866   -1.2259364722
H        0.0309513337    0.0382198885   -2.0135614879
H        4.4176417891   -0.3758387849   -1.9394739180
27   
torsion grid (-30,)
C        0.6429432727   -0.9101367778    0.4062417260
C       -0.3939569473   -0.1052563356    0.1178655788
C        3.2857580276   -3.3717173295   -1.0099148626
C        2.1761814142   -2.8473972336   -0.0889463259
C        4.3995186858   -2.3326424709   -1.1607530202
C        2.8510591457   -0.5100228842   -0.7279401629
C        1.6610946259   -1.4727964572   -0.5554481832
C       -1.3179396840    0.3990076082    1.2015476506
C       -0.7366903929    0.3713916868   -1.2735298054
N        3.8319375293   -1.0752621911   -1.6614422675
H        0.8017682117   -1.1692769404    1.4549251218
H        3.7007923561   -4.3064997678   -0.6150469217
H        2.8717244725   -3.5884261919   -2.0019834094
H        1.3445070805   -3.5598859271   -0.0401007863
H        2.5693926329   -2.7513013017    0.9334038835
H        4.9031159107   -2.2031909485   -0.1827038177
H        5.1533258386   -2.6829529723   -1.8743349607
H        2.4931740610    0.4439650182   -1.1288599357
H        3.2843122635   -0.3053757626    0.2704179919
H        1.2123935254   -1.6081971813   -1.5459391398
H       -1.3273088099    1.4966157753    1.2311537822
H       -2.3525301553    0.0824100423    1.0139702924
H       -1.0241151763    0.0339037993    2.1897141460
H       -1.7635961481    0.0874357160   -1.5379558776
H       -0.6944776595    1.4672593164   -1.3232797087
H       -0.0671537695   -0.0231175794   -2.0398297544
H        4.5792909555   -0.4014800237   -1.8129015519
27   
torsion grid (-15,)
C        0.7185093823   -0.7798373104    0.3887925510
C       -0.4068833128   -0.1012926271    0.1062739284
C        3.2218988471   -3.3484213201   -1.0807766321
C        2.1173589804   -2.7958257665   -0.1699094126
C        4.4130936008   -2.3885528882   -1.1299657388
C        2.9849190514   -0.4824326360   -0.6445713386
C        1.7217429499   -1.3611280920   -0.5726063351
C       -1.2957983771    0.4230060480    1.2104432235
C       -0.8955094920    0.2107332601   -1.2882324759
N        3.9580674097   -1.0661940438   -1.5746348794
H        0.9637364006   -0.9236618644    1.4435367239
H        3.5518504725   -4.3324454756   -0.7274199736
H        2.8330791128   -3.4771112554   -2.0980285112
H        1.2344146175   -3.4447362683   -0.1921146105
H        2.4757976379   -2.7870666904    0.8695061198
H        4.8859299171   -2.3529528703   -0.1288722543
H        5.1670610451   -2.7527552741   -1.8363895898
H        2.7134901711    0.5168785518   -1.0005790387
H        3.3939693188   -0.3685633188    0.3784484999
H        1.3058003277   -1.4018209560   -1.5843185744
H       -1.3992780248    1.5143487550    1.1467871356
H       -2.3089975502    0.0076378522    1.1291597758
H       -0.9046458984    0.1748925636    2.2011566462
H       -1.9009690171   -0.2007041993   -1.4458419933
H       -0.9780484380    1.2962322339   -1.4294594590
H       -0.2434485922   -0.1787723180   -2.0715690359
H        4.7573807267   -0.4424014041   -1.6604850694
27   
torsion grid (0,)
C        0.7892728697   -0.6432675385    0.3673815571
C       -0.4100369939   -0.0979419879    0.1004872391
C        3.1538310589   -3.3097354381   -1.1541462597
C        2.0523396255   -2.7257214123   -0.2589280535
C        4.4124917380   -2.4404718973   -1.1024389099
C        3.1086637542   -0.4621682609   -0.5636791685
C        1.7816899594   -1.2431903716   -0.5916799019
C       -1.2765625148    0.4500377257    1.2112849173
C       -1.0150145591    0.0275755722   -1.2775712311
N        4.0733864306   -1.0662952033   -1.4890315235
H        1.1022813848   -0.6703929635    1.4139255474
H        3.3956676358   -4.3330719119   -0.8436497194
H        2.8017514847   -3.3547740954   -2.1917353900
H        1.1250241154   -3.3011554381   -0.3578360482
H        2.3596054023   -2.8030168160    0.7937946603
H        4.8431751660   -2.4935221891   -0.0832326074
H        5.1677713961   -2.8218336124   -1.7983144353
H        2.9297951792    0.5740843031   -0.8691397710
H        3.4831455447   -0.4397307497    0.4787236204
H        1.4070625079   -1.1917190756   -1.6184611469
H       -1.4929153519    1.5146575467    1.0517090425
H       -2.2460373393   -0.0646447366    1.2431583242
H       -0.8014594118    0.3418606538    2.1903966772
H       -1.9754386953   -0.5020988950   -1.3243562642
H       -1.2283349873    1.0794261210   -1.5079505960
H       -0.3750173088   -0.3658486842   -2.0686883304
H        4.9183831760   -0.4999879593   -1.5116925470
27   
torsion grid (15,)
C        0.8531912510   -0.5048318822    0.3514954025
C       -0.4041684187   -0.0998283398    0.1032691503
C        3.0774221316   -3.2546648569   -1.2362306181
C        1.9864273478   -2.6408128724   -0.3480874763
C        4.3928631780   -2.4860015814   -1.0896076047
C        3.2165349531   -0.4500201618   -0.4799510438
C        1.8388586204   -1.1250877986   -0.6024196627
C       -1.2648586180    0.4799079035    1.2021360790
C       -1.0829648579   -0.1781936797   -1.2434847492
N        4.1698609548   -1.0705580010   -1.4055570875
H        1.2150351143   -0.4085928705    1.3779671496
H        3.2320460569   -4.3089815700   -0.9780883053
H        2.7640374788   -3.2149227102   -2.2864046787
H        1.0234820252   -3.1365352231   -0.5145549163
H        2.2421999181   -2.7994506482    0.7091113062
H        4.7784665756   -2.6284508656   -0.0609901953
H        5.1449965232   -2.8828416320   -1.7802007645
H        3.1283288656    0.6133572953   -0.7268520714
H        3.5505885002   -0.5185133709    0.5742961708
H        1.5136323147   -0.9848358900   -1.6380545082
H       -1.5909830015    1.4976322997    0.9499069741
H       -2.1771434116   -0.1150910793    1.3419999230
H       -0.7342843117    0.5192331671    2.1576769084
H       -1.9831914498   -0.8034757456   -1.1818588165
H       -1.4165851323    0.8167653922   -1.5655771857
H       -0.4432685848   -0.5894412570   -2.0258890479
H        5.0539972437   -0.5687113358   -1.3657206500
27   
torsion grid (30,)
C        0.9094329208   -0.3656273875    0.3348404768
C       -0.3901355764   -0.1056588915    0.1127104590
C        2.9982935220   -3.1862973137   -1.3244524489
C        1.9181051445   -2.5447237966   -0.4428662072
C        4.3582884602   -2.5268339652   -1.0826116762
C        3.3062893420   -0.4476090085   -0.3965458858
C        1.8912567957   -1.0100926957   -0.6110811608
C       -1.2580186397    0.5142123161    1.1828272106
C       -1.1054911757   -0.4012272349   -1.1839392409
N        4.2510696635   -1.0828102941   -1.3200224333
H        1.3059727493   -0.1312550624    1.3251892949
H        3.0660023355   -4.2621492508   -1.1242367463
H        2.7327959229   -3.0635215734   -2.3814219690
H        0.9296902476   -2.9567656210   -0.6751912724
H        2.1147856924   -2.7807598785    0.6122918418
H        4.6894837582   -2.7567333127   -0.0509083258
H        5.1081381373   -2.9376331757   -1.7674957451
H        3.3062896461    0.6320360030   -0.5822095690
H        3.5891249844   -0.6010233612    0.6639024899
H        1.6232332416   -0.7850546347   -1.6492580872
H       -1.6843914589    1.4663953180    0.8402033956
H       -2.1065986489   -0.1382112064    1.4279359513
H       -0.6975269310    0.7036533846    2.1026886659
H       -1.9284437789   -1.1077510684   -1.0142137936
H       -1.5578341169    0.5111525553   -1.5938326716
H       -0.4517715371   -0.8276535628   -1.9467923884
H        5.1664805661   -0.6510045956   -1.2171804829
27   
torsion grid (45,)
C        0.9520518529   -0.2319391137    0.2977695766
C       -0.3739188617   -0.1098587263    0.1183564182
C        2.9289873188   -3.1192503604   -1.4027517408
C        1.8580308364   -2.4520594426   -0.5291269228
C        4.3179357144   -2.5646612721   -1.0765620620
C        3.3705640063   -0.4590717154   -0.3221347084
C        1.9335833974   -0.9137407217   -0.6270676280
C       -1.2521138168    0.5416830043    1.1599613011
C       -1.1025912460   -0.5944214380   -1.1125980587
N        4.3137212007   -1.1061812485   -1.2383959035
H        1.3688205614    0.1401314556    1.2358770980
H        2.9194278377   -4.2058591498   -1.2568380933
H        2.7143006831   -2.9266194762   -2.4609072837
H        0.8573618904   -2.7969015044   -0.8103157248
H        2.0037668379   -2.7422026293    0.5205992916
H        4.5921841347   -2.8695085553   -0.0476605797
H        5.0664045572   -2.9881788429   -1.7552000583
H        3.4490007078    0.6265816626   -0.4478424632
H        3.5934768572   -0.6860906658    0.7394768908
H        1.7399841128   -0.6184252328   -1.6659605701
H       -1.7761380251    1.4129008506    0.7451534938
H       -2.0278295444   -0.1530122731    1.5088610446
H       -0.6761379186    0.8719874647    2.0290961725
H       -1.7993844996   -1.4033942655   -0.8562890601
H       -1.7072993347    0.2126378989   -1.5456603723
H       -0.4290160438   -0.9655142006   -1.8873234556
H        5.2493480504   -0.7419788166   -1.0741869202
27   
torsion grid (60,)
C        0.9758868569   -0.1218781229    0.2207994247
C       -0.3638118183   -0.1153384991    0.1175788146
C        2.8988403435   -3.0690918173   -1.4687256623
C        1.8116746631   -2.3801743217   -0.6323509952
C        4.2920858626   -2.5973752498   -1.0465014852
C        3.4007445458   -0.4780987458   -0.2667002644
C        1.9618414039   -0.8456045049   -0.6724481991
C       -1.2279978403    0.5706620107    1.1489087840
C       -1.1216487854   -0.7436173861   -1.0287825107
N        4.3657798072   -1.1357679704   -1.1513299139
H        1.4090745884    0.3745989995    1.0912330212
H        2.8281482184   -4.1580119167   -1.3620655478
H        2.7539678967   -2.8317405283   -2.5296494742
H        0.8181565066   -2.6803078530   -0.9771708870
H        1.8884022193   -2.7059124991    0.4141079307
H        4.4926034533   -2.9522553185   -0.0166559547
H        5.0567427288   -3.0329085425   -1.6990004833
H        3.5388037006    0.6062628848   -0.3447311148
H        3.5477118314   -0.7543695467    0.7964403669
H        1.8607835875   -0.4934022139   -1.7084815362
H       -1.8164081309    1.3801516685    0.6970851950
H       -1.9487230651   -0.1340427010    1.5849036202
H       -0.6328126805    0.9937373080    1.9631332536
H       -1.6608912473   -1.6418622584   -0.6999499629
H       -1.8780473935   -0.0475452332   -1.4123902913
H       -0.4722270779   -1.0251744983   -1.8600600346
H        5.3058410916   -0.8238804581   -0.9188664117
27   
torsion grid (75,)
C        0.9818155930   -0.0390860380    0.1131240459
C       -0.3597885173   -0.1194102089    0.1098297557
C        2.9082554754   -3.0207792108   -1.5494566759
C        1.7806612206   -2.3243721875   -0.7739740078
C        4.2797560995   -2.6251296274   -1.0000480115
C        3.4025754838   -0.5087650147   -0.2020487384
C        1.9848425342   -0.7966861112   -0.7369459192
C       -1.1845998470    0.6289370977    1.1315430384
C       -1.1702501367   -0.8881957244   -0.9098035221
N        4.4132482654   -1.1648181272   -1.0346206810
H        1.4262685361    0.5853200770    0.8905777686
H        2.7872928690   -4.1091568399   -1.4956230847
H        2.8580617388   -2.7359246484   -2.6073664116
H        0.8149828297   -2.5862693867   -1.2110502756
H        1.7627520616   -2.6914030478    0.2614196176
H        4.3849174455   -3.0296223203    0.0256247611
H        5.0771301777   -3.0636670107   -1.6100344670
H        3.5868686134    0.5713918730   -0.2196767636
H        3.4506743715   -0.8349099714    0.8559305195
H        1.9923848254   -0.3937134891   -1.7605323649
H       -1.8378816344    1.3680224427    0.6493613216
H       -1.8422590985   -0.0598109051    1.6787223618
H       -0.5579345322    1.1493491030    1.8612915927
H       -1.5390289801   -1.8360555672   -0.4963720301
H       -2.0537404548   -0.3083967029   -1.2030525094
H       -0.6035016244   -1.1108977498   -1.8157781065
H        5.3410179512   -0.8988980180   -0.7127115322
27   
torsion grid (90,)
C        0.9811555422    0.0247833580    0.0013017495
C       -0.3510756975   -0.1228833442    0.1073883685
C        2.9395964022   -2.9528234029   -1.6656734420
C        1.7575703117   -2.2546794803   -0.9761603993
C        4.2569888439   -2.6570076749   -0.9495214997
C        3.3838251975   -0.5559608707   -0.1151996683
C        2.0139036857   -0.7452202019   -0.8020893173
C       -1.1354599529    0.7312633845    1.0790726365
C       -1.2046792213   -1.0745517329   -0.7069143284
N        4.4495768476   -1.2049719606   -0.8816014817
H        1.4192157479    0.7939521351    0.6406130932
H        2.7679766980   -4.0352474745   -1.6970263956
H        3.0190538834   -2.6024801161   -2.7018664333
H        0.8495174773   -2.4406865217   -1.5513248063
H        1.5958764478   -2.6949607196    0.0174215789
H        4.2337748429   -3.1229856511    0.0549931985
H        5.0975396430   -3.0969690363   -1.4973536546
H        3.6115161628    0.5136693902   -0.0467315454
H        3.3104979924   -0.9446628965    0.9196899738
H        2.1275492562   -0.2807179732   -1.7936014814
H       -1.8624892416    1.3629647603    0.5518641082
H       -1.7120987131    0.1008711454    1.7693880394
H       -0.4861552554    1.3788528560    1.6748493755
H       -1.2957892331   -2.0536607722   -0.2204749375
H       -2.2196345842   -0.6753635345   -0.8103816194
H       -0.8109186729   -1.2346146364   -1.7121342172
H        5.3476868561   -0.9988563431   -0.4501972131
27   
torsion grid (105,)
C        1.2794363130   -0.4205320182    0.6407212844
C        0.8480486523   -0.5492156290    1.9090308124
C        3.5073934538   -3.2966233956   -0.8954362901
C        2.7382293656   -2.5643399416    0.2156351243
C        4.4461269586   -2.3493289329   -1.6416706061
C        3.0277705610   -0.4549406671   -1.1175352610
C        2.0202254899   -1.3183533012   -0.3302896237
C        0.0521723154    0.5763992958    2.5394004632
C        1.0468207795   -1.7148897035    2.8508966279
N        3.6659305282   -1.2322342346   -2.1834690146
H        0.9932146668    0.5180471466    0.1596199300
H        4.0792662156   -4.1285936761   -0.4680642732
H        2.7970894695   -3.7214218719   -1.6148594412
H        2.0180374815   -3.2559913221    0.6615001947
H        3.4379703888   -2.2652830212    1.0073360157
H        5.2407036607   -2.0083207641   -0.9494802927
H        4.9344435621   -2.8712818377   -2.4718881314
H        2.5054735728    0.3920027525   -1.5758165143
H        3.7610203313   -0.0399554401   -0.3989274384
H        1.2792425782   -1.6759358684   -1.0620457148
H       -0.9283186064    0.2171161499    2.8794038614
H        0.5653272084    0.9697350873    3.4269113582
H       -0.1123552002    1.4051451049    1.8454720272
H        1.4338358096   -1.3556382052    3.8130219483
H        0.0818812265   -2.1930179353    3.0665499818
H        1.7254676916   -2.4780864569    2.4822805216
H        4.2739773213   -0.6219587763   -2.7249579408
27   
torsion grid (120,)
C        1.1858847450   -0.4614321804    0.5871910973
C        0.8474935638   -0.5448897791    1.8870659112
C        3.4267751058   -3.3146546644   -0.9616433493
C        2.6475249160   -2.6094547742    0.1593941102
C        4.4425262624   -2.3677783895   -1.6025487604
C        3.0793118033   -0.4429123021   -1.0260152444
C        1.9961888904   -1.3189174361   -0.3609238664
C       -0.0256330528    0.5337880410    2.4969715074
C        1.2279648786   -1.6136693812    2.8860961800
N        3.7461532954   -1.1786738683   -2.1053315949
H        0.7827277012    0.4112348555    0.0672933957
H        3.9412082263   -4.1975988460   -0.5646810919
H        2.7305588995   -3.6593264618   -1.7356021966
H        1.8889403474   -3.2870071348    0.5641430449
H        3.3416389839   -2.3689436612    0.9747100888
H        5.2178295993   -2.1135379794   -0.8535792488
H        4.9455716970   -2.8592318012   -2.4425484812
H        2.6187320382    0.4538510523   -1.4546421522
H        3.7834305397   -0.1088376606   -0.2398742468
H        1.3117435533   -1.6139080023   -1.1710948569
H       -0.9504770033    0.1037786536    2.9039226018
H        0.4864964821    1.0234358536    3.3359122740
H       -0.2999427211    1.3031059885    1.7701213442
H        1.7387624228   -1.1577095652    3.7443507957
H        0.3236817841   -2.0916228550    3.2854588056
H        1.8714600186   -2.3921785535    2.4880788651
H        4.4118788185   -0.5644066105   -2.5688853230
27   
torsion grid (135,)
C        1.0941274792   -0.5167861728    0.5424729207
C        0.8466125252   -0.5378473627    1.8651204962
C        3.3618130182   -3.3285566515   -1.0334612073
C        2.5623478960   -2.6626267039    0.0969515982
C        4.4396089288   -2.3792494766   -1.5628467440
C        3.1126791420   -0.4435770872   -0.9229291521
C        1.9686151478   -1.3309947317   -0.3856539115
C       -0.0859557058    0.4955633412    2.4644165895
C        1.3922520237   -1.4968595690    2.8982576583
N        3.8157598272   -1.1298659693   -2.0122481432
H        0.5883754466    0.2823026398   -0.0047840272
H        3.8286242884   -4.2528462942   -0.6734670191
H        2.6900116476   -3.5972721215   -1.8574298412
H        1.7716545674   -3.3316779844    0.4536893258
H        3.2435466221   -2.4832509140    0.9371282974
H        5.1879297760   -2.2100581699   -0.7640405101
H        4.9629579654   -2.8319174892   -2.4122160919
H        2.7050794623    0.4953403280   -1.3131326106
H        3.7783604576   -0.1882295989   -0.0762932780
H        1.3470741372   -1.5592718529   -1.2641558223
H       -0.9485405554    0.0136864819    2.9434366555
H        0.4236046064    1.0730708660    3.2472548036
H       -0.4612421921    1.1971046778    1.7144533402
H        2.0061812710   -0.9528811417    3.6284420280
H        0.5665853702   -1.9463826564    3.4648167631
H        1.9936180944   -2.3020650167    2.4870111670
H        4.5267505479   -0.5123488321   -2.3974536763
27   
torsion grid (150,)
C        1.0125493567   -0.4848465458    0.4734316035
C        0.8893755126   -0.4716638396    1.8127940055
C        3.1949857199   -3.3481041463   -1.0936786669
C        2.3335260475   -2.6872469348   -0.0074313443
C        4.4073120799   -2.4723424871   -1.4226370506
C        3.1952625175   -0.4560272356   -0.7994351358
C        1.9327773604   -1.2647689601   -0.4440121544
C       -0.1939267359    0.3571654030    2.4676334939
C        1.7685824423   -1.2198965361    2.7953996692
N        3.9551690469   -1.1431890820   -1.8493087284
H        0.3099299545    0.1481194013   -0.0711782613
H        3.5328176460   -4.3373510197   -0.7630572979
H        2.6038861795   -3.4894244393   -2.0066207783
H        1.4346770347   -3.2813381976    0.1936958138
H        2.9104923683   -2.6632546980    0.9208812223
H        5.0642845320   -2.4251346283   -0.5319221050
H        4.9900585465   -2.9181958513   -2.2361905604
H        2.9105479750    0.5357137853   -1.1669644121
H        3.7839895733   -0.3068354421    0.1262146345
H        1.3768927208   -1.4015111750   -1.3813728027
H       -0.8304629511   -0.2713796664    3.1050087119
H        0.2392827161    1.1262208454    3.1205890770
H       -0.8349382486    0.8515407791    1.7324818929
H        1.8020344141   -0.6860092836    3.7515749090
H        1.3752270812   -2.2224847538    3.0047302623
H        2.7955861199   -1.3283642675    2.4450575277
H        4.7585127854   -0.5768884862   -2.1123439163
27   
torsion grid (165,)
C        0.9354341321   -0.5339337253    0.4475676150
C        0.9197377209   -0.4610870075    1.7909195899
C        3.1298266428   -3.3438901371   -1.1801880007
C        2.1908490869   -2.7232563318   -0.1356079128
C        4.3950969963   -2.4969058584   -1.3401712321
C        3.2109498000   -0.4757838327   -0.6865898946
C        1.8939550362   -1.2490206035   -0.4859421876
C       -0.2011795979    0.2617335033    2.5042058095
C        1.9631561923   -1.0367899844    2.7225331171
N        4.0252910172   -1.1280263349   -1.7178367300
H        0.1129088758   -0.0331669091   -0.0644254699
H        3.4015400319   -4.3655754588   -0.8895230541
H        2.6220611905   -3.4010920783   -2.1506410115
H        1.2497713382   -3.2819908309   -0.0788861495
H        2.6592084694   -2.8010017366    0.8500274940
H        4.9694294538   -2.5292510981   -0.3932825840
H        5.0352434893   -2.9129578019   -2.1258460031
H        2.9912531256    0.5474993131   -1.0089447054
H        3.7357123242   -0.4071075940    0.2845603007
H        1.4040626303   -1.2835918877   -1.4671852663
H       -0.7023857899   -0.4066765141    3.2171817948
H        0.1833951261    1.1087461233    3.0874619557
H       -0.9544432423    0.6394557482    1.8073491939
H        2.2006415661   -0.3126551881    3.5114082912
H        1.5857889747   -1.9366450374    3.2261548746
H        2.8946065683   -1.2950778201    2.2202284900
H        4.8665206367   -0.5794483794   -1.8811887158
27   
torsion grid (180,)
C        0.8745626120   -0.6238432135    0.4478943052
C        0.9282726873   -0.4557725559    1.7819657449
C        3.1161182445   -3.3404606813   -1.2587587789
C        2.1240402265   -2.7673375218   -0.2365654128
C        4.3962871174   -2.5021814256   -1.3037404362
C        3.2131813768   -0.5070773201   -0.5792573125
C        1.8738322807   -1.2658842415   -0.4960544416
C       -0.2072551073    0.2256503537    2.5128115707
C        2.0523499065   -0.8977491623    2.6900521824
N        4.0589914881   -1.1086764676   -1.6167809300
H       -0.0196528996   -0.2390924043   -0.0433295397
H        3.3609772320   -4.3801609812   -1.0112395638
H        2.6621170669   -3.3373790306   -2.2570775359
H        1.1724756071   -3.3094578740   -0.2755222764
H        2.5220937303   -2.9129856397    0.7738722166
H        4.9223048062   -2.5974112123   -0.3332723667
H        5.0707327613   -2.8796700774   -2.0801144942
H        3.0225102362    0.5382523430   -0.8439980361
H        3.7035215851   -0.5095018434    0.4097465253
H        1.4452692775   -1.1971239155   -1.5034772681
H       -0.6326379648   -0.4355168572    3.2794336598
H        0.1462098961    1.1240286401    3.0362026721
H       -1.0118615665    0.5219203460    1.8342257729
H        2.4574742229   -0.0383154118    3.2399894346
H        1.6766118646   -1.6011296014    3.4447952267
H        2.8768436776   -1.3765504063    2.1647281509
H        4.9130614306   -0.5640713003   -1.7131894600
