19   
torsion grid (-165,)
C        0.3656857791   -0.9124603217   -0.4957797733
C        2.7714295180   -0.4320409888    0.1846492870
C        0.5975840826   -0.6360917550   -1.9818240295
C        3.2415966263   -0.1120188767   -1.2364921505
C        1.6166758430   -1.4445325442    0.2087619367
O        1.4600100987    1.8476546146   -1.5268405586
O        2.2907765170    0.6452916639   -3.6301581341
O        1.2184052990   -1.7563981707    1.5443658203
S        1.8928230367    0.6159511114   -2.2133435389
H        0.0333779921    0.0013900446    0.0052552534
H       -0.4337558800   -1.6530119211   -0.3924242104
H        3.6265443095   -0.8388521772    0.7405553514
H        2.4587391680    0.4888827664    0.6867943095
H        0.9190823864   -1.5210834944   -2.5386725481
H       -0.2878726258   -0.2179808424   -2.4678992603
H        4.0370141878    0.6376878412   -1.2525864986
H        3.5802134212   -0.9969597410   -1.7831745438
H        1.9487657850   -2.3636443760   -0.3039579439
H        2.0138488166   -1.8683993740    2.0884614697
19   
torsion grid (-150,)
C        0.3677955598   -0.9245462557   -0.5001124231
C        2.7738625348   -0.4539896388    0.1813993064
C        0.5959567105   -0.6334558468   -1.9839870862
C        3.2408638559   -0.1187528753   -1.2371079969
C        1.6195956127   -1.4663297821    0.1975148902
O        1.4605693733    1.8449168525   -1.5022832368
O        2.2878257083    0.6663040120   -3.6204778610
O        1.2304733711   -1.8044841137    1.5307939451
S        1.8908627746    0.6207315594   -2.2039101498
H        0.0383478040   -0.0157322778    0.0117376058
H       -0.4334102495   -1.6641167652   -0.4027590650
H        3.6304081766   -0.8677043243    0.7301058118
H        2.4628270992    0.4634388624    0.6920305152
H        0.9167784856   -1.5125635537   -2.5505063224
H       -0.2905121552   -0.2105907920   -2.4640934205
H        4.0369409693    0.6303439114   -1.2458291409
H        3.5777802902   -0.9984311538   -1.7930260491
H        1.9521626369   -2.3791779797   -0.3243202441
H        1.9918158030   -1.6924763797    2.1205211590
19   
torsion grid (-135,)
C        0.3711248152   -0.9360591322   -0.5014947722
C        2.7824374927   -0.4735347051    0.1768659964
C        0.5949578916   -0.6317628973   -1.9836819434
C        3.2423988968   -0.1242693693   -1.2405529480
C        1.6262169672   -1.4821946320    0.1895799962
O        1.4604069007    1.8404149553   -1.4756481813
O        2.2809726111    0.6878815048   -3.6109034930
O        1.2562360588   -1.8533446738    1.5209500970
S        1.8883867807    0.6248764210   -2.1938708180
H        0.0390389607   -0.0319862015    0.0174727240
H       -0.4277574384   -1.6785492832   -0.4081209234
H        3.6390900940   -0.8963102240    0.7175224599
H        2.4772753163    0.4426168465    0.6948644687
H        0.9153703153   -1.5056679375   -2.5585600842
H       -0.2927230663   -0.2054009897   -2.4584706756
H        4.0382316637    0.6251116842   -1.2451644606
H        3.5774430015   -0.9987778673   -1.8055265692
H        1.9555936893   -2.3898597300   -0.3409567415
H        1.9262434103   -1.5298003100    2.1413861058
19   
torsion grid (-120,)
C        0.3765319859   -0.9492722543   -0.5014781957
C        2.7976004223   -0.4920932877    0.1694087221
C        0.5960222498   -0.6311457557   -1.9816486833
C        3.2456692237   -0.1297885705   -1.2485730251
C        1.6361655141   -1.4938382523    0.1856071971
O        1.4593357060    1.8353274419   -1.4417218815
O        2.2676154716    0.7180871746   -3.6003894706
O        1.2898734167   -1.8878709827    1.5175711801
S        1.8847745524    0.6319188358   -2.1819509957
H        0.0377242958   -0.0508836777    0.0235602812
H       -0.4167181786   -1.6981594204   -0.4127884332
H        3.6543876330   -0.9253371466    0.6999603566
H        2.5025363858    0.4229856061    0.6965330583
H        0.9199991935   -1.4989728742   -2.5638636881
H       -0.2939758417   -0.2052075365   -2.4525452253
H        4.0438499985    0.6171318861   -1.2524289772
H        3.5732278239   -0.9997216328   -1.8248374425
H        1.9590168469   -2.4023185141   -0.3444546015
H        1.8173076614   -1.3774575799    2.1497300620
19   
torsion grid (-105,)
C        0.3842716116   -0.9592588661   -0.4964080157
C        2.8152144514   -0.5054080256    0.1619723579
C        0.5967236020   -0.6308503075   -1.9756815824
C        3.2508145359   -0.1322111373   -1.2570603620
C        1.6499258308   -1.5020527667    0.1835875229
O        1.4592192064    1.8313488823   -1.4173983076
O        2.2536489281    0.7373238650   -3.5932159816
O        1.3329899079   -1.9197482971    1.5149036877
S        1.8820497861    0.6362916859   -2.1727739737
H        0.0407355664   -0.0637808722    0.0315638876
H       -0.4040243596   -1.7132041037   -0.4082327924
H        3.6718050198   -0.9464049157    0.6846587520
H        2.5293429760    0.4086961063    0.6970219542
H        0.9207112615   -1.4942741456   -2.5644946379
H       -0.2959938202   -0.2042534092   -2.4408836333
H        4.0493472986    0.6143793327   -1.2625185207
H        3.5731607053   -0.9976760880   -1.8429885929
H        1.9646975301   -2.4110918500   -0.3475959973
H        1.6763043230   -1.2644416286    2.1412344730
19   
torsion grid (-90,)
C        0.3955126952   -0.9682601217   -0.4888960833
C        2.8349912641   -0.5146454668    0.1526815598
C        0.5991958817   -0.6309270149   -1.9676454155
C        3.2568897009   -0.1342209136   -1.2685944359
C        1.6667540713   -1.5087099444    0.1844023430
O        1.4595254522    1.8270465472   -1.3924118854
O        2.2360130062    0.7584156579   -3.5872942414
O        1.3762439801   -1.9347645296    1.5175824052
S        1.8794989052    0.6412822493   -2.1642390284
H        0.0495487674   -0.0748278633    0.0420149664
H       -0.3890890151   -1.7259752981   -0.4005354328
H        3.6925802344   -0.9611810911    0.6674787047
H        2.5580892984    0.3980284202    0.6950908467
H        0.9229281818   -1.4907302847   -2.5618935997
H       -0.2973605659   -0.2053524413   -2.4264126554
H        4.0572097759    0.6104794895   -1.2787638791
H        3.5710318050   -0.9968884314   -1.8632172010
H        1.9744745878   -2.4219320357   -0.3412526496
H        1.5069063348   -1.1834534683    2.1175959194
19   
torsion grid (-75,)
C        0.4094352897   -0.9723379457   -0.4766314009
C        2.8538393427   -0.5174678732    0.1444363789
C        0.6009298118   -0.6307390138   -1.9562142380
C        3.2637143048   -0.1336076914   -1.2793988314
C        1.6861709376   -1.5134329161    0.1858323392
O        1.4619572690    1.8259915007   -1.3816143421
O        2.2202223174    0.7652292962   -3.5867135837
O        1.4192970822   -1.9429590509    1.5215391764
S        1.8783765963    0.6434498272   -2.1604410766
H        0.0676695043   -0.0777225649    0.0562605953
H       -0.3752279327   -1.7296041034   -0.3838585576
H        3.7137500446   -0.9651362288    0.6532853855
H        2.5819357225    0.3932584099    0.6920809469
H        0.9200879073   -1.4892514415   -2.5546736526
H       -0.2999057480   -0.2049124514   -2.4062837315
H        4.0642035840    0.6108744661   -1.2956025063
H        3.5720435344   -0.9945078459   -1.8798034070
H        1.9887664053   -2.4286347419   -0.3377799267
H        1.3236783880   -1.1551061722    2.0812706700
19   
torsion grid (-60,)
C        0.4244774147   -0.9718515087   -0.4618095385
C        2.8711983713   -0.5149773127    0.1370724696
C        0.6024352820   -0.6300576841   -1.9431271308
C        3.2707208118   -0.1319164015   -1.2898779892
C        1.7057999783   -1.5149637156    0.1888129300
O        1.4661996880    1.8271110404   -1.3805829905
O        2.2058989648    0.7627969413   -3.5902883893
O        1.4591822015   -1.9402345458    1.5294256533
S        1.8785220050    0.6437483150   -2.1603946221
H        0.0913770710   -0.0740609794    0.0724875254
H       -0.3630018959   -1.7257772124   -0.3626574182
H        3.7342761619   -0.9610680090    0.6412641929
H        2.6016254213    0.3938865597    0.6877722424
H        0.9144058124   -1.4895051942   -2.5438436762
H       -0.3026554307   -0.2035722512   -2.3839014442
H        4.0708573000    0.6128180722   -1.3130564522
H        3.5744447624   -0.9926101845   -1.8931077292
H        2.0050863710   -2.4310320934   -0.3345052037
H        1.1400940702   -1.1753503771    2.0360078080
19   
torsion grid (-45,)
C        0.4389770181   -0.9671306008   -0.4464541660
C        2.8865284094   -0.5084206705    0.1308846247
C        0.6039750052   -0.6290176165   -1.9300416738
C        3.2769589494   -0.1299046733   -1.2997078223
C        1.7236176498   -1.5120255455    0.1938141555
O        1.4713058050    1.8302518160   -1.3870830009
O        2.1937234700    0.7540979041   -3.5967229995
O        1.4949040699   -1.9249240580    1.5423541060
S        1.8794487188    0.6430869888   -2.1632745721
H        0.1169204847   -0.0648459233    0.0880981099
H       -0.3532955730   -1.7156872237   -0.3401661018
H        3.7532503906   -0.9511271737    0.6314385271
H        2.6175465616    0.3990300855    0.6828372645
H        0.9085275490   -1.4909181518   -2.5308443869
H       -0.3052683020   -0.2027513674   -2.3623240870
H        4.0774792871    0.6141761255   -1.3305367358
H        3.5759287648   -0.9921198306   -1.9033008011
H        2.0199582645   -2.4287727349   -0.3303537550
H        0.9704578383   -1.2396138908    1.9870735522
19   
torsion grid (-30,)
C        0.4495912456   -0.9564119899   -0.4308287640
C        2.8989945319   -0.4980957245    0.1267139680
C        0.6045577538   -0.6275210154   -1.9175809360
C        3.2828660490   -0.1283781372   -1.3077466224
C        1.7374907601   -1.5022322907    0.2001326347
O        1.4786733580    1.8341891046   -1.4001486920
O        2.1854805888    0.7385252407   -3.6051551080
O        1.5274430608   -1.8992878183    1.5579558666
S        1.8815006884    0.6403583088   -2.1685449189
H        0.1360614095   -0.0495306000    0.1011785514
H       -0.3458401518   -1.7015301667   -0.3179389783
H        3.7680179545   -0.9384336550    0.6253449466
H        2.6315959065    0.4097523177    0.6776046762
H        0.9018200560   -1.4941923503   -2.5149788005
H       -0.3068897441   -0.2011352761   -2.3449159991
H        4.0835929618    0.6150491310   -1.3471257501
H        3.5779761097   -0.9938895810   -1.9085898666
H        2.0292925148   -2.4184361557   -0.3292869107
H        0.8287193080   -1.3454158827    1.9396009406
19   
torsion grid (-15,)
C        0.4563333228   -0.9411008734   -0.4165122219
C        2.9079265004   -0.4854997716    0.1248097221
C        0.6040868168   -0.6249937899   -1.9067573805
C        3.2876157278   -0.1275851336   -1.3134544931
C        1.7467838141   -1.4875408678    0.2073765587
O        1.4875855781    1.8393743379   -1.4196129660
O        2.1816148126    0.7170631464   -3.6151440426
O        1.5551133630   -1.8651182462    1.5746821384
S        1.8845421583    0.6361731648   -2.1760145848
H        0.1500944657   -0.0297259190    0.1115436643
H       -0.3424185754   -1.6827265497   -0.2975325919
H        3.7781669214   -0.9233698983    0.6235804065
H        2.6415528542    0.4241937737    0.6721953577
H        0.8943396662   -1.4977824468   -2.4985417507
H       -0.3081765023   -0.1981956436   -2.3318104982
H        4.0888001244    0.6148376321   -1.3608271504
H        3.5799362617   -0.9976600749   -1.9090042586
H        2.0328861422   -2.4032290533   -0.3289008777
H        0.7241609091   -1.4837303277    1.8956152066
19   
torsion grid (0,)
C        0.4787737256   -1.0051702566   -0.4288448417
C        2.8837758808   -0.3832150654    0.1502535225
C        0.6364104589   -0.7120074616   -1.9227815499
C        3.2720104566   -0.0313890601   -1.2869542418
C        1.7900579650   -1.4564325549    0.2266417487
O        1.3541360199    1.8142028238   -1.4812769276
O        2.1653075701    0.6831698944   -3.6316619162
O        1.6063055698   -1.8072200863    1.6023620516
S        1.8423480303    0.6200772524   -2.1971854931
H        0.1048356402   -0.1066892513    0.0759634539
H       -0.2741284701   -1.7947629565   -0.3127180175
H        3.7691154745   -0.7527694644    0.6771508684
H        2.5444106092    0.5161954718    0.6730018243
H        0.9909817532   -1.5774075479   -2.4898047905
H       -0.2913306850   -0.3503263678   -2.3738262406
H        4.0226206346    0.7621418113   -1.3329403100
H        3.6352709237   -0.8918276425   -1.8567682457
H        2.1442662585   -2.3572100435   -0.2974671923
H        0.6757765454   -1.6859760360    1.8425465351
19   
torsion grid (15,)
C        0.4761849138   -0.9852833630   -0.4200667639
C        2.8852532440   -0.3700928471    0.1515051458
C        0.6337628617   -0.7078704673   -1.9170306762
C        3.2740656962   -0.0327551469   -1.2887578607
C        1.7878485258   -1.4363564192    0.2350713228
O        1.3649920119    1.8200991341   -1.5037136941
O        2.1697368979    0.6603419371   -3.6410283143
O        1.6114309414   -1.7579552711    1.6181347713
S        1.8466510006    0.6154003263   -2.2058496275
H        0.1052323864   -0.0836380498    0.0797719070
H       -0.2795331018   -1.7722399164   -0.2987402587
H        3.7694070917   -0.7394335424    0.6807574804
H        2.5492820680    0.5340541156    0.6677207126
H        0.9839544988   -1.5802931166   -2.4760169166
H       -0.2920900308   -0.3456506122   -2.3714715711
H        4.0262159654    0.7589071647   -1.3407677245
H        3.6356553748   -0.8986353933   -1.8511502430
H        2.1371397553   -2.3411819307   -0.2884986931
H        0.6657542599   -1.8540331427    1.8058212414
19   
torsion grid (30,)
C        0.4712635524   -0.9646474712   -0.4150362832
C        2.8824322965   -0.3580117876    0.1540899770
C        0.6307983532   -0.7026474263   -1.9145692655
C        3.2737340330   -0.0348429556   -1.2884844585
C        1.7813319788   -1.4182862140    0.2438251629
O        1.3753873706    1.8259738528   -1.5273290647
O        2.1786038895    0.6380550084   -3.6495997353
O        1.6060892807   -1.7104825989    1.6316379324
S        1.8511380161    0.6107177920   -2.2148976775
H        0.1070900965   -0.0580152043    0.0795076767
H       -0.2913999572   -1.7440833612   -0.2865296512
H        3.7643522827   -0.7254047704    0.6883081661
H        2.5470030541    0.5513180897    0.6613846619
H        0.9768360035   -1.5817751117   -2.4657929485
H       -0.2927138873   -0.3397978063   -2.3732843300
H        4.0289445213    0.7534971289   -1.3458935859
H        3.6334673704   -0.9069403216   -1.8423251123
H        2.1270705513   -2.3284878306   -0.2753106531
H        0.6995155549   -2.0227555528    1.7759894263
19   
torsion grid (45,)
C        0.4638834998   -0.9451089304   -0.4141959263
C        2.8756963362   -0.3484416360    0.1570106804
C        0.6274924214   -0.6962836226   -1.9156157051
C        3.2718054579   -0.0377556806   -1.2868902150
C        1.7699081191   -1.4025881074    0.2519455501
O        1.3859937621    1.8323960782   -1.5501738654
O        2.1897587105    0.6190533625   -3.6577022375
O        1.5878025919   -1.6651898407    1.6438409118
S        1.8558979833    0.6073975901   -2.2241638062
H        0.1069219852   -0.0334086644    0.0751206811
H       -0.3061271521   -1.7161263381   -0.2797913050
H        3.7546928886   -0.7147944398    0.6966028259
H        2.5419048567    0.5661850938    0.6558915392
H        0.9699552568   -1.5811915203   -2.4600181713
H       -0.2929826625   -0.3320307189   -2.3793688853
H        4.0308664465    0.7466551871   -1.3473369368
H        3.6296466474   -0.9155436271   -1.8328793009
H        2.1144801839   -2.3200732650   -0.2557411043
H        0.7733470283   -2.1797674613    1.7591555083
19   
torsion grid (60,)
C        0.4542486846   -0.9274510766   -0.4179241704
C        2.8660115297   -0.3424558569    0.1599260499
C        0.6244107585   -0.6891708714   -1.9203623297
C        3.2683828556   -0.0413168771   -1.2843248356
C        1.7538936553   -1.3897423985    0.2592024515
O        1.3958644855    1.8384477590   -1.5699183623
O        2.2026945441    0.6050776627   -3.6644997877
O        1.5572913957   -1.6249003022    1.6542892082
S        1.8607228265    0.6054909720   -2.2326984345
H        0.1040650990   -0.0107071968    0.0660205751
H       -0.3228790273   -1.6898286146   -0.2790031211
H        3.7414229388   -0.7097826151    0.7044571541
H        2.5353368617    0.5769944233    0.6522575910
H        0.9641802111   -1.5788455181   -2.4589206256
H       -0.2924366104   -0.3231470325   -2.3900023987
H        4.0317696556    0.7388680396   -1.3456087228
H        3.6246721786   -0.9238380874   -1.8237330078
H        2.0979341367   -2.3153499790   -0.2331601294
H        0.8833581819   -2.3149589712    1.7596931333
19   
torsion grid (75,)
C        0.4429125825   -0.9125077224   -0.4250902830
C        2.8540354550   -0.3399282538    0.1629400505
C        0.6215161117   -0.6815333273   -1.9276773259
C        3.2642588481   -0.0457530248   -1.2807407180
C        1.7344958288   -1.3801080517    0.2645421311
O        1.4053641904    1.8441594592   -1.5860159554
O        2.2168223667    0.5954768829   -3.6696164674
O        1.5161676974   -1.5938146850    1.6615314287
S        1.8658437090    0.6048560281   -2.2398937537
H        0.0986326631    0.0088564110    0.0538375778
H       -0.3407152836   -1.6667501759   -0.2834070862
H        3.7253221455   -0.7092140704    0.7125824887
H        2.5267463449    0.5835569727    0.6502640458
H        0.9591753308   -1.5748470904   -2.4617492928
H       -0.2913198105   -0.3129917804   -2.4032665978
H        4.0326032972    0.7296886161   -1.3410351675
H        3.6186178923   -0.9322598842   -1.8150292610
H        2.0777045777   -2.3129339426   -0.2126951309
H        1.0227604144   -2.4205689019    1.7762095547
19   
torsion grid (90,)
C        0.4301138911   -0.9013823006   -0.4347508648
C        2.8414915551   -0.3409791186    0.1660123040
C        0.6188388973   -0.6738482988   -1.9365044077
C        3.2602882576   -0.0515359859   -1.2764626577
C        1.7131459842   -1.3728657301    0.2675175224
O        1.4146306767    1.8488629851   -1.5957427719
O        2.2307909757    0.5913124986   -3.6720692292
O        1.4657729607   -1.5724377502    1.6642482431
S        1.8710836819    0.6054086158   -2.2444291479
H        0.0878763387    0.0228871222    0.0399369682
H       -0.3571707424   -1.6507291115   -0.2927080204
H        3.7085173118   -0.7138310806    0.7200708220
H        2.5188564855    0.5858671778    0.6502274496
H        0.9552743535   -1.5693977093   -2.4677644061
H       -0.2896459479   -0.3020968559   -2.4180046289
H        4.0340149673    0.7187510527   -1.3346290255
H        3.6118316119   -0.9412106284   -1.8075470032
H        2.0534676653   -2.3119420182   -0.1971394174
H        1.1817654372   -2.4874494050    1.8054285092
19   
torsion grid (105,)
C        0.4164765895   -0.8945873795   -0.4456620663
C        2.8292971383   -0.3450264918    0.1689226850
C        0.6163987955   -0.6662270272   -1.9456718926
C        3.2571908275   -0.0589227238   -1.2719074712
C        1.6914334215   -1.3682707438    0.2679541815
O        1.4242265800    1.8517365074   -1.5977628055
O        2.2435594612    0.5923539091   -3.6717049307
O        1.4090738173   -1.5628833125    1.6608649603
S        1.8765138554    0.6064401828   -2.2458582128
H        0.0722122745    0.0304251744    0.0263505305
H       -0.3712415278   -1.6429255162   -0.3060722952
H        3.6920476763   -0.7226016289    0.7268518059
H        2.5116772330    0.5845151504    0.6511987695
H        0.9511626411   -1.5630630996   -2.4759042218
H       -0.2874045567   -0.2896896704   -2.4323252089
H        4.0361232991    0.7063626803   -1.3272597010
H        3.6056783295   -0.9511140231   -1.8009714745
H        2.0267945494   -2.3121806343   -0.1887680734
H        1.3497239564   -2.5109578940    1.8434156589
19   
torsion grid (120,)
C        0.4028550490   -0.8912989968   -0.4558519549
C        2.8169509539   -0.3516880157    0.1723318992
C        0.6138979099   -0.6587564788   -1.9534945362
C        3.2546920529   -0.0673631784   -1.2661055459
C        1.6707890131   -1.3678148527    0.2648628965
O        1.4341329362    1.8549131033   -1.5964952604
O        2.2557278163    0.5946504739   -3.6690061069
O        1.3527138212   -1.5685488795    1.6500320683
S        1.8820034188    0.6082054791   -2.2448760960
H        0.0555117379    0.0331231454    0.0155864064
H       -0.3845968023   -1.6400160900   -0.3214419394
H        3.6758958585   -0.7331170058    0.7341912457
H        2.5020471791    0.5793019899    0.6533756822
H        0.9477087273   -1.5555801047   -2.4843057741
H       -0.2855887321   -0.2771120544   -2.4441585596
H        4.0394807283    0.6922036448   -1.3175097189
H        3.5986040356   -0.9615212369   -1.7949507272
H        2.0002054617   -2.3141868346   -0.1907953949
H        1.5179131957   -2.4920106490    1.8843016538
19   
torsion grid (135,)
C        0.3898204625   -0.8914055864   -0.4658950041
C        2.8050324240   -0.3607426430    0.1760742641
C        0.6107155453   -0.6517179968   -1.9607668286
C        3.2526408254   -0.0777367306   -1.2598561175
C        1.6522671284   -1.3718344040    0.2587559971
O        1.4440379545    1.8553318183   -1.5878347363
O        2.2665609538    0.6010457921   -3.6636396721
O        1.3014916469   -1.5870660494    1.6328001019
S        1.8872605698    0.6094462068   -2.2409672557
H        0.0379748824    0.0303629642    0.0075577120
H       -0.3953997169   -1.6432308580   -0.3388308752
H        3.6608303004   -0.7462118974    0.7410391196
H        2.4922728672    0.5712829987    0.6561526987
H        0.9412866099   -1.5479169833   -2.4945056011
H       -0.2840570524   -0.2618454084   -2.4535250719
H        4.0428497170    0.6763912472   -1.3077852942
H        3.5917474305   -0.9737578737   -1.7886853500
H        1.9776807007   -2.3178693004   -0.2015703440
H        1.6759311117   -2.4291418366    1.9271724950
19   
torsion grid (150,)
C        0.3790736026   -0.8934473277   -0.4752876832
C        2.7937545044   -0.3748403408    0.1797587208
C        0.6077837802   -0.6463311566   -1.9674164447
C        3.2495925211   -0.0866741432   -1.2526854265
C        1.6366245587   -1.3829681853    0.2491949460
O        1.4506498768    1.8552988764   -1.5777279855
O        2.2759744557    0.6081741841   -3.6567656098
O        1.2602495302   -1.6175692971    1.6108048352
S        1.8906229647    0.6108474148   -2.2357819431
H        0.0285108286    0.0269459283    0.0019517421
H       -0.4079037140   -1.6442342472   -0.3549613410
H        3.6481388259   -0.7656478128    0.7444742042
H        2.4823034674    0.5556214792    0.6636138692
H        0.9368341594   -1.5409764837   -2.5045399841
H       -0.2834777310   -0.2502267734   -2.4614899534
H        4.0426621674    0.6648255196   -1.2933331180
H        3.5875853590   -0.9814704776   -1.7842071926
H        1.9598099687   -2.3263085378   -0.2203290745
H        1.8121552352   -2.3276351601    1.9704176765
19   
torsion grid (165,)
C        0.3709661029   -0.8961396591   -0.4826486998
C        2.7825312601   -0.3905016867    0.1838727759
C        0.6035399947   -0.6422461326   -1.9727976704
C        3.2465613696   -0.0958371468   -1.2447619582
C        1.6251880245   -1.3998686911    0.2363367790
O        1.4559191020    1.8532939355   -1.5661711430
O        2.2846956317    0.6145848733   -3.6489756506
O        1.2336810247   -1.6618767145    1.5859608281
S        1.8931580587    0.6108031715   -2.2297977165
H        0.0266181794    0.0237001380   -0.0001590531
H       -0.4202234520   -1.6432943571   -0.3672724142
H        3.6360081784   -0.7852742766    0.7485864775
H        2.4698580644    0.5378160646    0.6711228335
H        0.9289331578   -1.5353399801   -2.5144678023
H       -0.2842887050   -0.2376610550   -2.4660706524
H        4.0411079381    0.6543638605   -1.2782271126
H        3.5846654962   -0.9890562360   -1.7786728174
H        1.9508351976   -2.3351617389   -0.2494932277
H        1.9211897372   -2.1989209098    2.0093264621
19   
torsion grid (180,)
C        0.3669614348   -0.9041586013   -0.4903966006
C        2.7751837930   -0.4110417895    0.1848233745
C        0.6003755408   -0.6383963998   -1.9781331560
C        3.2436374407   -0.1039898572   -1.2396586511
C        1.6185304733   -1.4219518393    0.2224636991
O        1.4588646053    1.8512948215   -1.5488785940
O        2.2896543537    0.6280772012   -3.6398986433
O        1.2189499393   -1.7060042489    1.5639830166
S        1.8937453568    0.6132348125   -2.2222335608
H        0.0285227943    0.0124864560    0.0018370659
H       -0.4288540903   -1.6477064299   -0.3822192283
H        3.6293510891   -0.8116029970    0.7457601548
H        2.4619355517    0.5130968732    0.6799906163
H        0.9227795287   -1.5275517741   -2.5278308873
H       -0.2859686889   -0.2258361051   -2.4673856233
H        4.0389007672    0.6457390243   -1.2637128465
H        3.5822359704   -0.9932647836   -1.7795603202
H        1.9473774839   -2.3503378547   -0.2753470682
H        1.9887610173   -2.0387030492    2.0520874901
