16   
torsion grid (-165,)
C        1.7534779962   -1.3112228555   -0.1883469894
C        0.8801231791   -0.2982779092    1.8538900335
C        0.8295555319   -0.5058075300    0.4764723851
C        2.7392425942   -1.9316649476    0.5699201425
C        1.9320755016   -0.8690507926    2.5617996812
C        2.8872921952   -1.6691491401    1.9328575894
C       -0.1473150013    1.2691779022   -0.8197234559
O       -0.2475471949    0.0256932790   -0.2481611018
F        3.6515836137   -2.7150708518   -0.0330007527
F        2.0649028486   -0.6244139969    3.8771381655
F        4.0011365285   -2.0286809488    2.5861222154
Cl       0.1385499031    2.5764878034    0.4101153955
Cl      -1.7116038343    1.5484732748   -1.6314937371
Cl       1.1946785740    1.3604001407   -2.0421315282
H        1.6856495047   -1.4960311462   -1.2535153461
H        0.1448607132    0.3116588195    2.3644393910
16   
torsion grid (-150,)
C        1.7848395247   -1.3462371533   -0.1790257674
C        0.8718407264   -0.3272176500    1.8432103730
C        0.8534210178   -0.5291368387    0.4639322027
C        2.7112756222   -2.0097971809    0.6145474287
C        1.9211468314   -0.8817296425    2.5696377733
C        2.8857351293   -1.6917174816    1.9652023262
C       -0.0548171285    1.2764935207   -0.8371425867
O       -0.1905727871    0.0242927521   -0.2916470185
F        3.6279281811   -2.8065219821    0.0316411930
F        2.0658285305   -0.5731631315    3.8705369348
F        4.0758863086   -1.8459753121    2.5667234108
Cl       0.1537089829    2.5652124651    0.4280310096
Cl      -1.5652952794    1.5703919178   -1.7401139419
Cl       1.3614317072    1.3838504402   -1.9704354693
H        1.7380807971   -1.5379501367   -1.2441176871
H        0.1340494575    0.2931905815    2.3370658605
16   
torsion grid (-135,)
C        1.7922825368   -1.3650414944   -0.1748550918
C        0.8476207931   -0.3725786384    1.8479782103
C        0.8504569757   -0.5531716036    0.4653165394
C        2.6703584038   -2.0644669238    0.6396083190
C        1.9062737442   -0.9088381784    2.5774170539
C        2.8872782255   -1.7068572201    1.9785516613
C       -0.0211918444    1.2784688673   -0.8222563244
O       -0.1766081546    0.0189318584   -0.2982544544
F        3.5905808400   -2.8644965333    0.0599038516
F        2.0681787994   -0.5502877748    3.8638529771
F        4.1283046990   -1.6486110888    2.4968670638
Cl       0.1805248020    2.5449200345    0.4654733986
Cl      -1.5144892436    1.6002661390   -1.7437486235
Cl       1.4136302700    1.3878167709   -1.9319693251
H        1.7574153001   -1.5578530623   -1.2401668901
H        0.1055314125    0.2457501911    2.3381502193
16   
torsion grid (-120,)
C        1.7833300351   -1.3756318817   -0.1778504379
C        0.8173341209   -0.4129809203    1.8495109661
C        0.8327409875   -0.5683223705    0.4642305168
C        2.6163217165   -2.1081115799    0.6509321418
C        1.8901839824   -0.9303109946    2.5764166833
C        2.8872912494   -1.7104038979    1.9764008341
C       -0.0117501204    1.2885632249   -0.8022290810
O       -0.1819740919    0.0213382334   -0.3000980489
F        3.5415813018   -2.9108873879    0.0753293413
F        2.0753338992   -0.5206648571    3.8453330507
F        4.1564097412   -1.4486471393    2.3608238461
Cl       0.1831233412    2.5316175024    0.5083081853
Cl      -1.4909382409    1.6349231955   -1.7368858195
Cl       1.4378586279    1.4029344123   -1.8916517572
H        1.7560553531   -1.5666216867   -1.2438113943
H        0.0732647847    0.2007957697    2.3427071471
16   
torsion grid (-105,)
C        1.7940294183   -1.3904238827   -0.1755200682
C        0.7954933547   -0.4603980427    1.8544029428
C        0.8315967021   -0.5876639476    0.4662919351
C        2.5795857513   -2.1458143504    0.6742356319
C        1.8774068936   -0.9627172452    2.5834471818
C        2.9014967214   -1.7179337952    1.9862447652
C        0.0199357663    1.2908777649   -0.7874043928
O       -0.1692472738    0.0200016387   -0.2998052283
F        3.4999438103   -2.9650026922    0.1027005565
F        2.0695192131   -0.5098850653    3.8366645439
F        4.1453801024   -1.2472073297    2.2662555079
Cl       0.2257165611    2.5151903871    0.5378204961
Cl      -1.4494924886    1.6667183172   -1.7255565531
Cl       1.4765436603    1.3953824086   -1.8685818475
H        1.7749644982   -1.5870727943   -1.2405644390
H        0.0466112272    0.1491280395    2.3459513615
16   
torsion grid (105,)
C        1.8557007922   -1.2890606970   -0.2176043402
C        1.0988491062   -0.1482436185    1.8101113648
C        0.9370501117   -0.4669515056    0.4615627487
C        3.0096288633   -1.5723333174    0.4882846253
C        2.1017059979   -0.8079447731    2.5240674630
C        3.0263781366   -1.6652431821    1.9020867188
C       -0.2645113847    1.1352463251   -0.8742032427
O       -0.2262982468   -0.0603266702   -0.1965541437
F        3.9463165813   -2.3303586889   -0.1386638066
F        2.0260262651   -0.8244047389    3.8682935914
F        3.1030022373   -2.8832243411    2.5011241701
Cl      -0.0230076699    2.5542258909    0.2331767902
Cl      -1.8898635380    1.2174088298   -1.6033909949
Cl       0.9934918047    1.2325433060   -2.1802108690
H        1.7820099526   -1.4995115581   -1.2775092467
H        0.3683541695    0.4547284624    2.3366185547
16   
torsion grid (120,)
C        1.8304160028   -1.2892701636   -0.2117173884
C        1.0603423800   -0.1723913586    1.8208596516
C        0.9154421751   -0.4709567540    0.4664037914
C        2.9742198901   -1.6289970649    0.4912210199
C        2.0712956004   -0.8196653836    2.5303503520
C        3.0049593183   -1.6532142242    1.9006823212
C       -0.2530853016    1.1605542598   -0.8612772420
O       -0.2368897721   -0.0450863721   -0.2024606352
F        3.8933187111   -2.4050896987   -0.1290765336
F        2.0356456692   -0.8044709877    3.8759632235
F        3.2991703808   -2.8021489798    2.5498717486
Cl      -0.0068634598    2.5603994938    0.2702140377
Cl      -1.8691232813    1.2743583112   -1.6074263733
Cl       1.0207598424    1.2625238966   -2.1516075445
H        1.7470904065   -1.5000859696   -1.2709578934
H        0.3305264563    0.4314080015    2.3470870230
16   
torsion grid (135,)
C        1.8322038073   -1.2798601943   -0.2818776999
C        1.0009373366   -0.2391900080    1.7662269086
C        0.8897747328   -0.5062474213    0.4012769062
C        2.9680872696   -1.6483866191    0.4251751757
C        2.0404834140   -0.8425138710    2.4677112369
C        3.0131521440   -1.6192085089    1.8261724436
C       -0.2953561356    1.1273489753   -0.9076277440
O       -0.2639011897   -0.0910242811   -0.2758355912
F        3.9053265461   -2.3897005404   -0.2036864377
F        2.0411213358   -0.8007885506    3.8122569065
F        3.5400788892   -2.6396714326    2.5290549666
Cl      -0.0651889967    2.5074705864    0.2517971440
Cl      -1.9129899520    1.2376991238   -1.6516814273
Cl       0.9763552597    1.2729482731   -2.1974524544
H        1.7576290268   -1.4775147739   -1.3441868779
H        0.2465180598    0.3327066963    2.2930572199
16   
torsion grid (150,)
C        1.7934902326   -1.2948154308   -0.2201477757
C        0.9791985443   -0.2371202902    1.8250531168
C        0.8748093057   -0.4924859833    0.4582574619
C        2.8950567838   -1.7492597097    0.4931157483
C        2.0105231555   -0.8516640038    2.5274750952
C        2.9627403291   -1.6483338601    1.8863005900
C       -0.2317012905    1.1961104012   -0.8500521499
O       -0.2538250935   -0.0290724665   -0.2315050241
F        3.8057797360   -2.5251306690   -0.1260510353
F        2.0498424771   -0.7598224382    3.8686137226
F        3.6504696898   -2.5445775209    2.6118681214
Cl       0.0298166432    2.5557655152    0.3273632057
Cl      -1.8332143930    1.3726366742   -1.6162457643
Cl       1.0634490643    1.3092081402   -2.1190880121
H        1.7080392472   -1.4915126735   -1.2818919287
H        0.2426198165    0.3603873904    2.3484773521
16   
torsion grid (165,)
C        1.7821939393   -1.3011616656   -0.2093010953
C        0.9490145351   -0.2653110740    1.8384366291
C        0.8616869208   -0.5020375824    0.4674353516
C        2.8528177341   -1.8135007801    0.5137718375
C        1.9891591639   -0.8645608291    2.5397499306
C        2.9433166512   -1.6555319038    1.8976744851
C       -0.2086831087    1.2152880841   -0.8337797096
O       -0.2529822028   -0.0171638813   -0.2317423723
F        3.7629215272   -2.5899537101   -0.1012956630
F        2.0634539325   -0.7269829786    3.8751203343
F        3.8006488264   -2.3917397684    2.6186524182
Cl       0.0688330451    2.5565790080    0.3609551054
Cl      -1.8036019568    1.4267723358   -1.6051992133
Cl       1.0939655749    1.3239049362   -2.0960881470
H        1.6985148936   -1.4919558092   -1.2722799220
H        0.2120338617    0.3334107527    2.3598021477
16   
torsion grid (180,)
C        1.7565094034   -1.2927911365   -0.1883072820
C        0.9081271573   -0.2614793169    1.8556797527
C        0.8405839286   -0.4831898802    0.4812797321
C        2.7812811505   -1.8702017790    0.5524809140
C        1.9475760152   -0.8552937416    2.5623050442
C        2.8954372674   -1.6576713211    1.9265868869
C       -0.1633598745    1.2712062800   -0.8223280617
O       -0.2496874276    0.0351173773   -0.2328349513
F        3.6871154042   -2.6574945261   -0.0534609627
F        2.0517164758   -0.6664266579    3.8893564874
F        3.8897673868   -2.2224372768    2.6243396706
Cl       0.1399926826    2.5944305066    0.3860839380
Cl      -1.7425636751    1.5353771838   -1.6099045446
Cl       1.1563787923    1.3513614868   -2.0693740304
H        1.6796963808   -1.4788871288   -1.2526638158
H        0.1761459815    0.3491188021    2.3701986492
