14   
torsion grid (-165,)
C        1.6707399124   -1.2155391409    5.3055322882
C        1.7680523524   -1.0770524117    4.1035676699
C        1.8438884845   -1.1131068797   -0.1233364332
C        2.9284500161   -1.6224469515    0.6003047030
C        0.7903499828   -0.4850985273    0.5517626954
C        2.9372141961   -1.5541046884    1.9941068184
C        0.8323660606   -0.3444243224    1.9389006440
C        1.8737777892   -0.9354658048    2.6817044671
H        1.5815610427   -1.3449781780    6.3632958572
H        1.8183228010   -1.2081128425   -1.2056758968
H        3.7522340818   -2.1032124329    0.0792810810
H       -0.0477379864   -0.0759706172   -0.0061919131
H        3.7437502968   -2.0079408865    2.5625012730
H        0.0121073417    0.1342410716    2.4661562696
14   
torsion grid (-150,)
C        1.6194924810   -1.3140624917    5.2587588860
C        1.7766533289   -1.0535132071    4.0832595472
C        1.8012312661   -1.1851422599   -0.1000042586
C        2.9294749318   -1.6104495833    0.6110570918
C        0.7757508990   -0.5036476120    0.5687379488
C        2.9863056802   -1.4514126858    1.9972728804
C        0.9062214718   -0.2115409237    1.9254803660
C        1.9450023747   -0.7918464324    2.6845203672
H        1.4743546822   -1.5585637578    6.2897321602
H        1.7187883036   -1.3889918998   -1.1643294980
H        3.7357016967   -2.1251777904    0.0949860922
H       -0.0915630883   -0.1446905699    0.0212309813
H        3.7966602284   -1.8982563469    2.5660097550
H        0.1021113152    0.3024957281    2.4453954093
14   
torsion grid (-135,)
C        1.5764198638   -1.4141333102    5.1832851662
C        1.7835991237   -1.0334139030    4.0484794491
C        1.7589569074   -1.2593913684   -0.0601113931
C        2.9280282989   -1.6019073825    0.6296240786
C        0.7612270854   -0.5214848264    0.5944672910
C        3.0314319654   -1.3508107428    2.0008530976
C        0.9778363097   -0.0861350478    1.8993579933
C        2.0082312937   -0.6543116295    2.6852467106
H        1.3849944105   -1.7708830959    6.1732025334
H        1.6238489165   -1.5700552431   -1.0927354727
H        3.7179331854   -2.1501915527    0.1228778377
H       -0.1311006694   -0.2054729069    0.0612314232
H        3.8461511302   -1.7881973774    2.5711026517
H        0.1915302198    0.4690582717    2.4059189111
14   
torsion grid (-120,)
C        1.5187722351   -1.5017723801    5.0797289697
C        1.7890716363   -1.0153713149    3.9992621690
C        1.7162437232   -1.3342311974   -0.0004581352
C        2.9299346809   -1.5907412512    0.6474624148
C        0.7472474459   -0.5445718332    0.6429058498
C        3.0877495971   -1.2502690783    1.9958342380
C        1.0531384755    0.0257834770    1.8739902856
C        2.0811152626   -0.5281713879    2.6846719077
H        1.2693720528   -1.9581047390    6.0142439806
H        1.5253272485   -1.7472153224   -0.9872636070
H        3.7039737657   -2.1665413028    0.1466964691
H       -0.1731986692   -0.2718286387    0.1342685676
H        3.9114935089   -1.6742502412    2.5640499736
H        0.2884430569    0.6148972991    2.3779805981
14   
torsion grid (-105,)
C        1.4999109358   -1.5975187730    4.9669127276
C        1.8034524557   -1.0014942194    3.9515463340
C        1.6813839628   -1.4076142068    0.0862039202
C        2.9282392289   -1.5899092365    0.6950265030
C        0.7387127276   -0.5580297781    0.6988364413
C        3.1298292504   -1.1538585203    2.0119426146
C        1.1191448869    0.1286379157    1.8441865753
C        2.1364439838   -0.3979024316    2.6963221409
H        1.2229066318   -2.1559983994    5.8357084269
H        1.4465195535   -1.9183909471   -0.8436591574
H        3.6866751744   -2.2009965549    0.2125209652
H       -0.1988215674   -0.3154481394    0.2069089404
H        3.9583321057   -1.5646241386    2.5836703459
H        0.3708445742    0.7635114640    2.3194715800
14   
torsion grid (105,)
C        2.0163821680   -0.6616270759    4.9968461763
C        1.7016658806   -1.1855127316    3.9457291365
C        2.0842551302   -0.6775524735    0.1095328351
C        2.8873027995   -1.6641781679    0.6928295127
C        0.8464976798   -0.3627324092    0.7049936828
C        2.5907094823   -2.1308777698    1.9809521238
C        0.4381545501   -1.1055769525    1.8047723189
C        1.4030799942   -1.7268682469    2.6539953725
H        2.3172610798   -0.1728330078    5.8990593900
H        2.4157896166   -0.1618565071   -0.7875969701
H        3.8216345247   -1.9565314898    0.2205816624
H        0.1544094968    0.3246538914    0.2271626425
H        3.3646033026   -2.6405113656    2.5496157603
H       -0.5106763025   -0.8340825051    2.2683724134
14   
torsion grid (120,)
C        1.9423330514   -0.7340498033    5.1042813529
C        1.7045023287   -1.1684913550    3.9944368084
C        2.0431485969   -0.7416918525    0.0185044910
C        2.8902536875   -1.6626894549    0.6452623923
C        0.8411459096   -0.3743828806    0.6483616351
C        2.6502692505   -2.0431922593    1.9706203939
C        0.4891075103   -0.9966204761    1.8414003303
C        1.4840703176   -1.6103622691    2.6502101203
H        2.1697755069   -0.3260769547    6.0663551827
H        2.3169519239   -0.3123155955   -0.9414217843
H        3.8035970749   -1.9860144764    0.1526005151
H        0.1330648588    0.2833017880    0.1519819387
H        3.4329434596   -2.5415802044    2.5364916628
H       -0.4305744729   -0.6884527568    2.3364159719
14   
torsion grid (135,)
C        1.8961037440   -0.8343297050    5.2017849475
C        1.7156982050   -1.1567265814    4.0445606008
C        2.0042629779   -0.8147040251   -0.0459087478
C        2.8991520034   -1.6542895445    0.6279215673
C        0.8304125712   -0.3961033296    0.5985261860
C        2.7051626812   -1.9423804710    1.9819474532
C        0.5428988024   -0.8746889819    1.8742526305
C        1.5519146197   -1.4816811090    2.6588615221
H        2.0686495885   -0.5310076349    6.2127614880
H        2.2225515673   -0.4846769265   -1.0580899814
H        3.7978244659   -2.0053703606    0.1274347573
H        0.1014173946    0.2160257800    0.0747733273
H        3.4943318262   -2.4261288555    2.5506819677
H       -0.3596834383   -0.5303138412    2.3741234730
14   
torsion grid (150,)
C        1.8324790640   -0.9277820194    5.2710901015
C        1.7280039459   -1.1418818907    4.0804470497
C        1.9651611213   -0.8879431935   -0.0905530054
C        2.9076406885   -1.6499696858    0.6097863944
C        0.8237831608   -0.4166210541    0.5715439481
C        2.7662255244   -1.8504895204    1.9845281023
C        0.6099530482   -0.7487222363    1.9083632136
C        1.6344180407   -1.3550120976    2.6665516682
H        1.9337428225   -0.7253485636    6.3163260615
H        2.1221497114   -0.6577134664   -1.1410247294
H        3.7869353219   -2.0322160127    0.0979247615
H        0.0722105961    0.1521900852    0.0307675378
H        3.5611090159   -2.3254234107    2.5523356042
H       -0.2677288436   -0.3680803694    2.4240421669
14   
torsion grid (165,)
C        1.7753366249   -1.0258664654    5.3115865623
C        1.7426976677   -1.1230484578    4.1021000075
C        1.9276851669   -0.9611956867   -0.1184893234
C        2.9175655288   -1.6421844941    0.5996671821
C        0.8163319488   -0.4380045707    0.5532717024
C        2.8268781494   -1.7541429135    1.9877139873
C        0.6824390070   -0.6162374562    1.9302292499
C        1.7178239469   -1.2182116604    2.6726786883
H        1.8085872156   -0.9333365227    6.3764357083
H        2.0235357972   -0.8360807735   -1.1938021180
H        3.7776771655   -2.0570890984    0.0807419012
H        0.0382416420    0.0798955934   -0.0012059525
H        3.6256329162   -2.2220915218    2.5556531537
H       -0.1741834680   -0.2034993510    2.4553848092
14   
torsion grid (180,)
C        1.7180229546   -1.1185129170    5.3257055765
C        1.7554598345   -1.1004249150    4.1127540011
C        1.8853000409   -1.0366651413   -0.1275374335
C        2.9234921759   -1.6325111188    0.5978319373
C        0.8040473433   -0.4618694363    0.5503592221
C        2.8845015735   -1.6555258083    1.9922990009
C        0.7579580773   -0.4809615945    1.9446550863
C        1.7993807492   -1.0789358751    2.6808483007
H        1.6851226686   -1.1344233337    6.3944174304
H        1.9186139318   -1.0203626731   -1.2137025308
H        3.7648141163   -2.0799105695    0.0751324693
H       -0.0041558403    0.0018142576   -0.0091207344
H        3.6877013125   -2.1166953972    2.5594505611
H       -0.0788198819   -0.0363202366    2.4752719820
