28   
torsion grid (-105,)
C       -3.6869240816    4.2508924619    1.7985418079
C       -3.5588420123    3.2899627004    2.8070426656
C       -3.0407224805    4.0576754318    0.5713093236
C       -2.7869015189    2.1509926752    2.5832712485
C       -2.2709585908    2.9182626205    0.3408392507
C       -2.1296701150    1.9427762970    1.3505552350
C       -0.5370087040    0.2087002858    0.2733208197
C        0.2472594953   -1.0227662680    0.4279172819
C       -0.2857735660    0.5238126229   -1.2199772595
C       -1.3411555909    0.7173474522    1.2299348300
C        1.6789569824   -1.1514711268   -1.2550646133
C        0.5708196144   -0.3258741243   -3.3590899432
N        1.5948267998   -0.5523253223    0.0755463699
N        0.5305692657   -0.4224714259   -1.9059980866
O       -0.0314975027   -2.1231783450    0.8487214844
O       -0.8754674561    1.3891996799   -1.8587368246
H       -4.2867915713    5.1417799171    1.9664933651
H       -4.0569690715    3.4289117252    3.7629009675
H       -3.1419689650    4.8005470363   -0.2157934706
H       -2.6868784132    1.4082830767    3.3717544846
H       -1.7897887764    2.7653745341   -0.6166034464
H       -1.3647518225    0.1007785337    2.1293988266
H        2.6130429024   -0.8822908728   -1.7603066166
H        1.5180651926   -2.2366072172   -1.2853776354
H        1.2701697871    0.4507003713   -3.6976621235
H       -0.4202568165   -0.0834504533   -3.7425832335
H        0.8875330945   -1.2910970288   -3.7655413100
H        2.2296459197   -1.0710994947    0.6927103297
28   
torsion grid (-90,)
C       -3.7557640382    4.1979884654    1.7862579308
C       -3.6030829414    3.2291140595    2.7840457626
C       -3.0877598423    4.0462467245    0.5651342836
C       -2.7859968422    2.1239335137    2.5552224412
C       -2.2735897700    2.9395477385    0.3279278605
C       -2.1083218750    1.9546901649    1.3257306375
C       -0.4663989860    0.2291729254    0.2651978373
C        0.3100289099   -0.9928977432    0.5784056054
C       -0.2623745797    0.5460061480   -1.2036314174
C       -1.2771353706    0.7585684220    1.2132519907
C        1.5521237663   -1.2372284886   -1.3021466071
C        0.5599446719   -0.2602923863   -3.3653706212
N        1.6364164114   -0.7328632661    0.0730065880
N        0.4973545844   -0.3961018559   -1.9158853247
O        0.0076085480   -1.9471076878    1.2684373528
O       -0.8245472852    1.4606773223   -1.8057140669
H       -4.3904680301    5.0635933274    1.9585981409
H       -4.1166108397    3.3366528503    3.7357340905
H       -3.2060121854    4.7966431071   -0.2123840755
H       -2.6663595933    1.3757576364    3.3355982468
H       -1.7728749732    2.8174100950   -0.6232471634
H       -1.2782832860    0.1608507287    2.1251695736
H        2.4992412033   -1.0631343309   -1.8251252003
H        1.2853807541   -2.3022919815   -1.3670055021
H        1.3627206331    0.4229455533   -3.6742298985
H       -0.3865485095    0.1313937597   -3.7356677934
H        0.7428942411   -1.2451404220   -3.8065576604
H        2.2575700275   -1.3619489165    0.5909483453
28   
torsion grid (-75,)
C       -3.8197277640    4.1397800979    1.7483696194
C       -3.6248521751    3.1813905731    2.7491682093
C       -3.1431847014    4.0145848394    0.5291796644
C       -2.7588231599    2.1140568025    2.5237771937
C       -2.2803410059    2.9445057258    0.2957380353
C       -2.0718288498    1.9679778693    1.2946163933
C       -0.3704776729    0.2536174182    0.2684564125
C        0.4123333887   -0.9379517839    0.7045841457
C       -0.1993129488    0.5751416465   -1.1884409319
C       -1.1928945306    0.8059078968    1.2010622771
C        1.4535853894   -1.3251136378   -1.3484311335
C        0.5943597413   -0.1862330345   -3.3742527820
N        1.6699913318   -0.9211801085    0.0429536597
N        0.5178729738   -0.3574538175   -1.9289494320
O        0.1500834846   -1.6962421794    1.6251035283
O       -0.7338319796    1.5305292653   -1.7573794457
H       -4.4920591763    4.9771715255    1.9177199285
H       -4.1431110682    3.2685337525    3.7003516840
H       -3.2915643406    4.7582188150   -0.2496848132
H       -2.6069308131    1.3748900482    3.3068730593
H       -1.7676724784    2.8448996373   -0.6509605492
H       -1.1670864386    0.2365573253    2.1299095125
H        2.4036338136   -1.2682072574   -1.8910824061
H        1.0552645709   -2.3482432497   -1.4383035520
H        1.4648044604    0.4184451501   -3.6618403329
H       -0.3064618926    0.3145208837   -3.7255815709
H        0.6735579671   -1.1698961948   -3.8481652989
H        2.2550537872   -1.6232438503    0.5009854269
28   
torsion grid (-60,)
C       -3.9111789265    4.0780480411    1.7376648310
C       -3.6631419020    3.1392796154    2.7454312530
C       -3.2205459347    3.9882285400    0.5234705215
C       -2.7316983720    2.1265632279    2.5313880568
C       -2.2919918582    2.9720538789    0.3014313524
C       -2.0298384274    2.0133763333    1.3057306481
C       -0.2516181579    0.3371335324    0.3147826146
C        0.5547493495   -0.8141667124    0.8319424092
C       -0.1078064609    0.6644881288   -1.1381553056
C       -1.0866645160    0.9018350656    1.2340929552
C        1.3323532321   -1.3755017307   -1.3492678193
C        0.6505157558   -0.0912718539   -3.3482305084
N        1.6835939792   -1.0564808172    0.0319591667
N        0.5814173764   -0.2583379024   -1.9030924853
O        0.3905326484   -1.3745265964    1.9092673297
O       -0.6111274212    1.6585174628   -1.6717763903
H       -4.6338594439    4.8741553052    1.8987481061
H       -4.1905614739    3.2001556330    3.6935974712
H       -3.4072215236    4.7188392217   -0.2594827396
H       -2.5391151780    1.4032930378    3.3201931193
H       -1.7618548249    2.9035031435   -0.6377415148
H       -1.0220761058    0.3674918119    2.1812268959
H        2.2543344475   -1.4951936017   -1.9275985852
H        0.7526677012   -2.3107339392   -1.4277398482
H        1.6508889515    0.2371809946   -3.6584769806
H       -0.0773579434    0.6598722963   -3.6491762833
H        0.4220624344   -1.0419792345   -3.8436748187
H        2.2188254563   -1.8144591337    0.4553014832
28   
torsion grid (-45,)
C       -4.0222873429    3.9710018305    1.7178412315
C       -3.7175458256    3.0801473121    2.7530923428
C       -3.3115881886    3.9014965677    0.5139194267
C       -2.7127478811    2.1328225758    2.5741810649
C       -2.3067690408    2.9527222108    0.3287249184
C       -1.9896301974    2.0390249419    1.3590377780
C       -0.1356465260    0.4185676194    0.4121219329
C        0.6930722375   -0.7061970861    0.9637356601
C        0.0068413947    0.7603143222   -1.0365234751
C       -0.9806809200    0.9850074612    1.3224707006
C        1.1135980561   -1.4479190199   -1.2947767261
C        0.6883643317   -0.0113310985   -3.2698577837
N        1.6148263756   -1.2149074488    0.0527203022
N        0.5960046949   -0.2016511807   -1.8294179959
O        0.6774666825   -1.0805440596    2.1332538915
O       -0.3797653863    1.8256639732   -1.5287458556
H       -4.8025792129    4.7163431617    1.8506299854
H       -4.2583593246    3.1270989161    3.6944900653
H       -3.5394818237    4.5984047117   -0.2886075305
H       -2.4786261438    1.4445963665    3.3827756497
H       -1.7507589626    2.9116648429   -0.5968966676
H       -0.8813572707    0.4880980548    2.2867593549
H        1.9471249876   -1.7731268566   -1.9240022489
H        0.3405181577   -2.2349025316   -1.3186640030
H        1.7372399699    0.0521039130   -3.5850741431
H        0.1801876902    0.9157676499   -3.5288615281
H        0.2111453512   -0.8467671946   -3.7964754495
H        2.0979931946   -2.0167184164    0.4515205058
28   
torsion grid (-30,)
C       -4.1196547391    3.8413796470    1.6870008126
C       -3.7572612525    2.9885490799    2.7355045540
C       -3.4176153710    3.7868192847    0.4772191421
C       -2.7048226240    2.0927692534    2.5638342746
C       -2.3649091098    2.8899106194    0.2996443584
C       -1.9903972242    2.0136915352    1.3429803070
C       -0.0964983282    0.4526829608    0.3866533779
C        0.7879974347   -0.6326268027    0.9379407417
C        0.0110750548    0.7958263060   -1.0640003177
C       -0.9287432783    1.0118566712    1.3121194152
C        0.9311283991   -1.4777736501   -1.3467861898
C        0.6639661596    0.0241400378   -3.3062238504
N        1.5017711157   -1.3296214516   -0.0194006231
N        0.5725305971   -0.1729133614   -1.8666952700
O        0.9342651002   -0.8648749005    2.1364460709
O       -0.3475418487    1.8785504625   -1.5390036485
H       -4.9367543506    4.5471505283    1.8143828679
H       -4.2901908441    3.0252924590    3.6818428745
H       -3.6885358929    4.4564957929   -0.3350664917
H       -2.4260972474    1.4338282268    3.3826308614
H       -1.8124384353    2.8667775380   -0.6288051886
H       -0.7744993823    0.5527958805    2.2878065425
H        1.6879411568   -1.9145848959   -2.0037397923
H        0.0558792261   -2.1501243263   -1.3436798100
H        1.6980622121   -0.1137780259   -3.6427121685
H        0.3407350997    1.0383663032   -3.5341866825
H        0.0198354280   -0.6859871654   -3.8404620961
H        1.9728855434   -2.1442124446    0.3620399636
28   
torsion grid (-15,)
C       -4.1436524560    3.8672035117    1.7035487715
C       -3.7566978422    3.0441705444    2.7668101694
C       -3.4589129755    3.7908577641    0.4849878731
C       -2.6976871866    2.1549828070    2.6003990966
C       -2.3985562015    2.9018773560    0.3134569604
C       -1.9995778704    2.0550507286    1.3718416039
C       -0.1031857089    0.4928529950    0.4238281573
C        0.7837879107   -0.5884944637    0.9828317592
C        0.0216552012    0.8393243464   -1.0222128191
C       -0.9306407406    1.0601716549    1.3480974744
C        0.8858822443   -1.4520235702   -1.3261657770
C        0.7324086199    0.0957840024   -3.2510409843
N        1.3563242556   -1.4087441575    0.0415163321
N        0.6432096522   -0.1073724117   -1.8114735825
O        1.0029229883   -0.7461190476    2.1835530346
O       -0.3480277927    1.9145907745   -1.5045428848
H       -4.9667537034    4.5668619676    1.8258509094
H       -4.2759152849    3.0980741693    3.7199401853
H       -3.7493711592    4.4375521826   -0.3390940214
H       -2.4005192556    1.5182300620    3.4301814220
H       -1.8584268259    2.8644409092   -0.6216918733
H       -0.7669241553    0.6162101898    2.3290842635
H        1.6625660737   -1.9069405579   -1.9472780716
H       -0.0254478025   -2.0681815689   -1.4228352968
H        1.7347709614   -0.1714372689   -3.6024519778
H        0.5383567159    1.1457008746   -3.4629024987
H       -0.0064276826   -0.5154080930   -3.7868013811
H        1.8484572856   -2.2117624480    0.4155625029
28   
torsion grid (0,)
C       -4.1727796795    3.8321118447    1.6921558798
C       -3.7496941087    3.0484434386    2.7711537203
C       -3.5357598252    3.7035950108    0.4521900879
C       -2.7032699602    2.1452397896    2.6000786640
C       -2.4863239990    2.8027145517    0.2764527423
C       -2.0512488146    1.9956385374    1.3515936282
C       -0.1788492405    0.4090937297    0.3973472375
C        0.7120898938   -0.6690689785    0.9568131933
C       -0.0435513710    0.7511435083   -1.0468580044
C       -0.9908948025    0.9915663690    1.3252954109
C        0.8258821525   -1.5395474911   -1.3672695640
C        0.7444877841    0.0446284875   -3.2552586985
N        1.1606350254   -1.5791843235    0.0376833498
N        0.6395024588   -0.1722000288   -1.8179261699
O        1.0041697632   -0.7674881340    2.1487221921
O       -0.4359200964    1.8112443162   -1.5435990126
H       -4.9875381348    4.5408639668    1.8178822058
H       -4.2323197907    3.1424570987    3.7402574282
H       -3.8551924328    4.3184328529   -0.3854499281
H       -2.3794789333    1.5379071274    3.4418807143
H       -1.9817502536    2.7265043628   -0.6759831514
H       -0.8157212122    0.5606276963    2.3100842080
H        1.6500338778   -1.9800882670   -1.9360372942
H       -0.0791185810   -2.1361609685   -1.5765419021
H        1.7263519831   -0.2899438462   -3.6053655017
H        0.6261420316    1.1080590936   -3.4547508512
H       -0.0343444213   -0.5032251327   -3.8036103258
H        1.7760255487   -2.3015415803    0.3906340179
28   
torsion grid (15,)
C       -3.7797631342    4.4820760590    1.9073726041
C       -3.3803588584    3.6981118458    2.9953379407
C       -3.4159112447    4.1016635503    0.6102765128
C       -2.6218484400    2.5505237354    2.7774244059
C       -2.6569006269    2.9535899717    0.3868145783
C       -2.2354205493    2.1547166894    1.4733733110
C       -0.7082157187    0.2588974318    0.4716275086
C        0.0341278653   -0.9323253293    1.0179387130
C       -0.6187208192    0.5415031648   -0.9914904972
C       -1.4222648722    0.9432542756    1.4107624607
C        1.5420720400   -0.6447415969   -0.9116149547
C        0.6679461777    0.2272986780   -3.0598602989
N        1.0285236115   -1.4139015086    0.2015157310
N        0.4464905217   -0.0419657091   -1.6458413014
O       -0.2114698880   -1.4578577158    2.1032402815
O       -1.4543127780    1.2042796716   -1.6145490130
H       -4.3753292155    5.3772359777    2.0685182171
H       -3.6613708149    3.9792416844    4.0067445402
H       -3.7346240123    4.7019794713   -0.2381051567
H       -2.3140018674    1.9449560916    3.6264662823
H       -2.4013588407    2.6510852821   -0.6186659348
H       -1.3212496916    0.4699766712    2.3865237973
H        2.2535742854    0.1296517049   -0.5751947595
H        2.0780964908   -1.3195453931   -1.5845633145
H        1.5050245720    0.9229300306   -3.2064996096
H       -0.2359497799    0.6744305761   -3.4698050641
H        0.8876532940   -0.7073606913   -3.5872059164
H        1.6130631027   -2.1321361080    0.6129380986
28   
torsion grid (30,)
C       -3.6960544936    4.4036409392    1.8236147746
C       -3.2447588666    3.6445596705    2.9090769025
C       -3.3740248211    4.0078868260    0.5201391434
C       -2.4772227568    2.5048953569    2.6821369491
C       -2.6026475128    2.8698040483    0.2879614193
C       -2.1287857862    2.0960494401    1.3711935462
C       -0.5907936054    0.2160509550    0.3525728338
C        0.1593908397   -0.9726644706    0.8884213629
C       -0.4798254099    0.5344892737   -1.1033269301
C       -1.3028902134    0.8942950369    1.2984913478
C        1.6432556128   -0.7255362272   -1.0337655487
C        0.8607884499    0.3062712152   -3.1526394103
N        1.0265438325   -1.5572353940   -0.0157353115
N        0.6143770734    0.0025953087   -1.7503961390
O       -0.0072574065   -1.4482527034    2.0100681975
O       -1.3118505671    1.2070653287   -1.7213729620
H       -4.3001564120    5.2916972726    1.9920916996
H       -3.4940319926    3.9378536252    3.9253291145
H       -3.7340337551    4.5884434521   -0.3254586584
H       -2.1316109844    1.9166218497    3.5288008883
H       -2.3728942639    2.5567055048   -0.7204942349
H       -1.1871240437    0.4207875425    2.2726238341
H        2.3836450092   -0.0302911126   -0.6018271901
H        2.1645848262   -1.3734042041   -1.7434462649
H        1.7660619092    0.9159525683   -3.2689422559
H        0.0071798353    0.8611854542   -3.5380356840
H        0.9825045562   -0.6206207134   -3.7249612200
H        1.6205214280   -2.2609100818    0.4120073472
28   
torsion grid (45,)
C       -3.7725963833    4.3191259044    1.7375709984
C       -3.2758823899    3.6008556213    2.8310595084
C       -3.4438907275    3.9171729555    0.4376813040
C       -2.4578371907    2.4949092920    2.6150790218
C       -2.6213449893    2.8133855829    0.2158046657
C       -2.1028829359    2.0807349634    1.3072259050
C       -0.5129694022    0.2311744316    0.3059105516
C        0.2782575602   -0.9216128762    0.8527539097
C       -0.4068566607    0.5294542653   -1.1563886839
C       -1.2254285137    0.9160758108    1.2470803138
C        1.6355538185   -0.8810535460   -1.1421703574
C        0.9204142764    0.2845886885   -3.2125920958
N        0.9363393757   -1.6584606235   -0.1282189751
N        0.6847300470   -0.0077246235   -1.8060341311
O        0.2682580012   -1.2837993842    2.0262442708
O       -1.2237367865    1.2222813408   -1.7724589343
H       -4.4157011150    5.1810140717    1.8974344539
H       -3.5289725123    3.8996232507    3.8447643993
H       -3.8372252036    4.4671272531   -0.4134913394
H       -2.0772434493    1.9377469440    3.4677627490
H       -2.3803891204    2.4975553777   -0.7891633388
H       -1.0672176079    0.4772748447    2.2315698569
H        2.4691742300   -0.2986810781   -0.7144403771
H        2.0490664195   -1.5689920566   -1.8850116707
H        1.9214959568    0.7102842687   -3.3517968292
H        0.1738485808    1.0034998162   -3.5452413002
H        0.8369648787   -0.6276760292   -3.8163313539
H        1.5116564913   -2.3809641057    0.2988008307
28   
torsion grid (60,)
C       -3.9545417778    4.2737294781    1.7936384706
C       -3.4081984632    3.6004209893    2.8920628889
C       -3.5846948609    3.8972281832    0.4971708474
C       -2.5033057261    2.5626336528    2.6843124769
C       -2.6739233583    2.8632641389    0.2837820261
C       -2.1092815481    2.1735416751    1.3800690488
C       -0.4458600106    0.3871583703    0.3821149256
C        0.3838341060   -0.7378657855    0.9201887329
C       -0.3299183936    0.6709783190   -1.0824481533
C       -1.1554258442    1.0701347069    1.3262383009
C        1.4821590675   -1.0577715050   -1.1703056846
C        0.9664907152    0.3409644037   -3.1421389183
N        0.7164660875   -1.6617849813   -0.0835793453
N        0.6911892567    0.0187799685   -1.7488071891
O        0.6045901508   -0.9597264329    2.1049483902
O       -1.0447232535    1.4785676545   -1.6847698033
H       -4.6647256657    5.0824939979    1.9470559094
H       -3.6898590241    3.8811247102    3.9033929790
H       -4.0113640777    4.4151613329   -0.3580186546
H       -2.0859462925    2.0392764833    3.5412431156
H       -2.3885395065    2.5759923824   -0.7181269481
H       -0.9477839376    0.6693057486    2.3176701080
H        2.4623205382   -0.6813148958   -0.8321080046
H        1.6543974638   -1.8156607396   -1.9415493220
H        2.0440713570    0.4821469516   -3.2848755960
H        0.4420217498    1.2591613681   -3.4000215482
H        0.6246513942   -0.4631339966   -3.8066332335
H        1.2349076083   -2.4285059342    0.3446838558
28   
torsion grid (75,)
C       -4.0390621161    4.2065519690    1.7666375938
C       -3.4641890074    3.5845227642    2.8805132710
C       -3.6318731811    3.8358589627    0.4795427902
C       -2.4944093331    2.6015504139    2.6980444987
C       -2.6564833527    2.8574674879    0.2913504880
C       -2.0655709730    2.2193382512    1.4041809469
C       -0.3413517211    0.5103354698    0.4089460154
C        0.5554373209   -0.5787413559    0.8853343192
C       -0.2188022409    0.7662891941   -1.0678860401
C       -1.0482052680    1.1730297615    1.3636093784
C        1.4260674989   -1.1424724637   -1.2065474376
C        1.0661253873    0.3939003403   -3.1188436996
N        0.5942734869   -1.6050293647   -0.0958711585
N        0.7964535373    0.0767414831   -1.7224561294
O        1.0203858856   -0.7096344659    2.0073090273
O       -0.8830491188    1.6051477597   -1.6825031421
H       -4.7985729684    4.9727631364    1.9007674352
H       -3.7733177326    3.8626659879    3.8845134074
H       -4.0777813326    4.3165141622   -0.3875066449
H       -2.0545926832    2.1172518370    3.5667787633
H       -2.3359883914    2.5811538707   -0.7036360593
H       -0.7985876980    0.8052703098    2.3586465383
H        2.4665955269   -0.9418549287   -0.9051658082
H        1.4274525061   -1.9014973297   -1.9965550898
H        2.1266656934    0.2201065156   -3.3269550451
H        0.8266772946    1.4399932526   -3.3039313469
H        0.4640305576   -0.2266253172   -3.7958844315
H        1.0397818152   -2.4190515876    0.3321055508
28   
torsion grid (90,)
C       -4.1032777784    4.1400285972    1.7612145804
C       -3.5130859843    3.5533456004    2.8859326674
C       -3.6687309045    3.7735924748    0.4816514559
C       -2.5017069846    2.6090433105    2.7216540239
C       -2.6528920652    2.8336090859    0.3125755129
C       -2.0482803296    2.2308901587    1.4367840962
C       -0.3002560077    0.5812171926    0.4271220614
C        0.6609813364   -0.4810674066    0.8038901013
C       -0.1766235082    0.8114264680   -1.0665786994
C       -0.9883088554    1.2260443087    1.4003485297
C        1.3101130366   -1.2488842598   -1.2279722398
C        1.1416109649    0.3958034381   -3.0887567196
N        0.4039588107   -1.5617023159   -0.1172941207
N        0.8353568905    0.0730100088   -1.7011636773
O        1.3892441723   -0.5580284120    1.7743564817
O       -0.7861746598    1.6784075421   -1.6926191161
H       -4.8940078154    4.8764211488    1.8808088831
H       -3.8416654069    3.8292193490    3.8844035502
H       -4.1239551249    4.2287587992   -0.3942561140
H       -2.0496153337    2.1523437975    3.5991464812
H       -2.3090907396    2.5666972571   -0.6778221634
H       -0.7025039559    0.8822288385    2.3948199069
H        2.3687976201   -1.1981726366   -0.9341578173
H        1.1866540943   -1.9831346998   -2.0320063975
H        2.1831067681    0.1287696428   -3.2937585517
H        1.0032122383    1.4635718019   -3.2533932971
H        0.4904413470   -0.1498098675   -3.7851354671
H        0.7622156647   -2.4056623971    0.3401097990
28   
torsion grid (105,)
C       -4.1653420518    4.0816371717    1.7372281108
C       -3.5836827668    3.5159532551    2.8767700194
C       -3.6867459307    3.7308251061    0.4688341841
C       -2.5362506371    2.6062727032    2.7403911994
C       -2.6365935836    2.8246994425    0.3270953423
C       -2.0432269313    2.2431717271    1.4675987303
C       -0.2754668526    0.6425553477    0.4593458654
C        0.7410288297   -0.3913960397    0.6905333776
C       -0.1480131118    0.8326588958   -1.0703260369
C       -0.9479392099    1.2747229266    1.4435084982
C        1.1969638463   -1.3648324007   -1.2441880870
C        1.1999517226    0.3682674759   -3.0697369134
N        0.2356798343   -1.4866113687   -0.1499290125
N        0.8522418238    0.0320864958   -1.6954471302
O        1.6864228835   -0.4554216952    1.4440537704
O       -0.6950931616    1.7249694965   -1.7100448104
H       -4.9829114186    4.7911912962    1.8364755293
H       -3.9460469124    3.7818577467    3.8662563563
H       -4.1335249977    4.1718952481   -0.4185714031
H       -2.0898330053    2.1661490142    3.6293913924
H       -2.2584390014    2.5723663938   -0.6552107493
H       -0.6382187638    0.9512148730    2.4380813017
H        2.2507914405   -1.4277874198   -0.9444213192
H        0.9795521361   -2.0717721552   -2.0524258532
H        2.1938185100   -0.0340120206   -3.2877298556
H        1.2164842716    1.4510059904   -3.1942904247
H        0.4805310907   -0.0495903542   -3.7870739216
H        0.4574369965   -2.3451602800    0.3665468092
