18   
torsion grid (-165,)
C        1.9880442464   -1.2576389116   -0.0555641062
C        0.9794831698   -0.4822283001    0.5164470680
C        2.8962043188   -1.9424215836    0.7537925078
C        0.8870354747   -0.3946967104    1.9046380245
C        1.8193504674   -1.0260520960    2.7409216859
C        2.7982089710   -1.8218751224    2.1358575664
C        2.4381401547    0.0311349030    4.8039897786
N       -0.2772527037    0.3196743165    2.4583686211
O       -0.6258605051    1.3523159967    1.8795929708
O       -0.8410905111   -0.1874702645    3.4273355706
O        1.7603027356   -0.9656011321    4.1212632617
F        3.6612236351   -2.4907230518    2.9165226038
Cl       1.5865614361    1.6233224307    4.6657445144
Cl       4.1335010873    0.2698274146    4.2070174011
Cl       2.4721990883   -0.5028408477    6.5015669807
H        2.0573382631   -1.3415103608   -1.1354777517
H        0.2495118095    0.0404101600   -0.0911533596
H        3.6790646631   -2.5680023341    0.3367273275
18   
torsion grid (-150,)
C        2.0062747493   -1.3073050186   -0.0200755368
C        1.0038098815   -0.5034756523    0.5227206504
C        2.8973512276   -1.9865796415    0.8138291419
C        0.8939542524   -0.3897215227    1.9078303498
C        1.7990574442   -1.0261498230    2.7672297076
C        2.7819578590   -1.8376375849    2.1910746875
C        2.4208066575    0.0239023026    4.8440288001
N       -0.2497171492    0.3736772626    2.4376145754
O       -0.5255314076    1.4330815951    1.8675470265
O       -0.8681646177   -0.1190466753    3.3801767796
O        1.7173106864   -0.9443327726    4.1428072549
F        3.6379478311   -2.4807306746    3.0012078303
Cl       1.4162990415    1.5146402242    5.0425668569
Cl       3.9694250591    0.5054510122    4.0394893025
Cl       2.7787819263   -0.6926278172    6.4386725097
H        2.0886693381   -1.4129575809   -1.0971514645
H        0.2946664242    0.0235404466   -0.1056561011
H        3.6812651776   -2.6245418893    0.4180545545
18   
torsion grid (-135,)
C        2.0145024959   -1.3520361535    0.0039772443
C        1.0147370936   -0.5267558906    0.5190546974
C        2.8945459192   -2.0177344637    0.8610241923
C        0.8901886951   -0.3848672299    1.9003325289
C        1.7732257280   -1.0199708392    2.7818991126
C        2.7637766627   -1.8403382569    2.2331104615
C        2.4038194146    0.0125735789    4.8766302087
N       -0.2289122851    0.4286084560    2.4069804142
O       -0.4633402598    1.4837428619    1.8099292223
O       -0.8669675780   -0.0164499412    3.3599689960
O        1.6666707126   -0.9137769529    4.1514589313
F        3.6176543935   -2.4529002210    3.0693147384
Cl       1.3163274049    1.3477978797    5.4143307113
Cl       3.7688109176    0.7362718552    3.9375194206
Cl       3.0572793010   -0.8480490728    6.3051094398
H        2.1080805607   -1.4799108569   -1.0697621602
H        0.3225985857   -0.0002031868   -0.1283667441
H        3.6825235698   -2.6633059400    0.4861755876
18   
torsion grid (-120,)
C        1.9944204729   -1.3760497258    0.0450437648
C        0.9970911551   -0.5393145215    0.5458568373
C        2.8673475121   -2.0361544888    0.9134761142
C        0.8641798091   -0.3841838306    1.9249641472
C        1.7328905143   -1.0233760609    2.8186421438
C        2.7275852909   -1.8471870547    2.2830900044
C        2.3787446725   -0.0255362088    4.9291915072
N       -0.2333103207    0.4674509642    2.4163228080
O       -0.4654956209    1.4952987598    1.7715719577
O       -0.8545642114    0.0846533279    3.4067748843
O        1.6049410007   -0.9050669307    4.1844297528
F        3.5790033428   -2.4490504261    3.1298386106
Cl       1.2682522211    1.0929013208    5.7959210188
Cl       3.5164453826    0.9481893033    3.9189127979
Cl       3.3170427695   -0.9793957223    6.1308807275
H        2.0946277897   -1.5136379933   -1.0268631869
H        0.3164252625   -0.0094142572   -0.1107030644
H        3.6570818453   -2.6859346919    0.5497054591
18   
torsion grid (-105,)
C        2.0192352442   -1.4297768317    0.0422622354
C        1.0745738955   -0.5308989789    0.5366583342
C        2.8409940772   -2.1412121215    0.9182522618
C        0.9393538347   -0.3605791676    1.9139581859
C        1.7603016430   -1.0526556447    2.8179420731
C        2.7043569790   -1.9380267312    2.2871490052
C        2.2925434464    0.0238723052    4.9228460115
N       -0.0987540007    0.5751701949    2.3822488636
O       -0.3448974934    1.5408940404    1.6527175304
O       -0.6633870096    0.3220268628    3.4462331836
O        1.6437760666   -0.9565113024    4.1875251083
F        3.5029352937   -2.6058407397    3.1352383304
Cl       1.1268690589    0.6354093409    6.1350346275
Cl       2.8850611529    1.3936788475    3.9061523938
Cl       3.6972473649   -0.7145892706    5.7911128039
H        2.1169078042   -1.5756828195   -1.0287916838
H        0.4347034708    0.0413917157   -0.1247070004
H        3.5885817624   -2.8435674572    0.5631130149
18   
torsion grid (-90,)
C        2.0439561537   -1.4402028806    0.0664720108
C        1.1166310295   -0.5132308125    0.5420724306
C        2.8220753660   -2.1787479768    0.9587769137
C        0.9627707030   -0.3356672514    1.9160156996
C        1.7522338415   -1.0447623559    2.8365087629
C        2.6674416903   -1.9711460583    2.3258045910
C        2.2768966591    0.0328746627    4.9336489099
N       -0.0723017186    0.6152929823    2.3637086455
O       -0.2976674289    1.5777190783    1.6237741607
O       -0.6555029868    0.3763098463    3.4209564687
O        1.6032699988   -0.9320454588    4.2032861307
F        3.4107172404   -2.6870706650    3.1842636612
Cl       1.2501649971    0.3748600246    6.3519709803
Cl       2.5669164612    1.5549803382    4.0027439366
Cl       3.8784139871   -0.6013250712    5.4980157164
H        2.1570753297   -1.5911869604   -1.0023541231
H        0.5025580355    0.0728270037   -0.1315407818
H        3.5469471384   -2.9119101516    0.6191581077
18   
torsion grid (-75,)
C        2.0803079603   -1.4470099685    0.0980932639
C        1.1653934986   -0.4936810481    0.5454430197
C        2.8048866860   -2.2108189004    1.0133992410
C        0.9803410817   -0.3089670424    1.9140682585
C        1.7310729092   -1.0287442186    2.8581852697
C        2.6191938688   -1.9962053473    2.3759532800
C        2.2791822702    0.0565118627    4.9339907698
N       -0.0694146080    0.6399327933    2.3306609020
O       -0.2367680351    1.6309065014    1.6139696257
O       -0.7249454884    0.3631683648    3.3347560018
O        1.5548093185   -0.8843235751    4.2217857909
F        3.2988326804   -2.7521607883    3.2522178416
Cl       1.4633966388    0.1785903163    6.5119053772
Cl       2.3093468293    1.6776965352    4.1280726685
Cl       3.9973021254   -0.4679063147    5.1782295531
H        2.2193585792   -1.6040296778   -0.9668073487
H        0.5809413579    0.1023269947   -0.1457902159
H        3.5095391512   -2.9729548876    0.6957729608
18   
torsion grid (-60,)
C        2.3110971085   -0.9821827389    0.0780655216
C        1.0146091600   -0.8313102733    0.5702203581
C        3.3840153611   -1.1342810996    0.9569949873
C        0.7987238528   -0.8395802482    1.9469510197
C        1.8507532477   -1.0503436608    2.8525313985
C        3.1430568676   -1.1600903298    2.3272402404
C        1.3936689284   -2.2389216875    4.8849970220
N       -0.5681335757   -0.5439790505    2.4145219793
O       -0.6838126808    0.1633596037    3.4147348261
O       -1.4979655881   -0.9947267823    1.7397915413
O        1.6726340078   -1.0545322389    4.2247549448
F        4.1813752883   -1.2756151538    3.1697043372
Cl       1.2270657897   -1.7852501091    6.5964523738
Cl       2.7164141052   -3.4636527063    4.6970614457
Cl      -0.1406631246   -3.0057120773    4.2977241447
H        2.4878478112   -0.9636135885   -0.9926603616
H        0.1677139672   -0.6884530554   -0.0910294570
H        4.4062142352   -1.2295282490    0.6045249145
18   
torsion grid (-45,)
C        2.2762116562   -0.9621115473    0.0470610682
C        0.9954031131   -0.7837065076    0.5704156271
C        3.3619711305   -1.1650054126    0.8992312381
C        0.8079166566   -0.8092578481    1.9508394470
C        1.8744772102   -1.0584710829    2.8300590483
C        3.1496058929   -1.2066318662    2.2741533150
C        1.4005498657   -2.2296567083    4.8776681532
N       -0.5484517629   -0.5200711336    2.4533296488
O       -0.6477975862    0.1224666852    3.4982759535
O       -1.4916749656   -0.9173161435    1.7633680567
O        1.7250451283   -1.0647247000    4.2040229996
F        4.2012784162   -1.3763598950    3.0904321527
Cl       0.8885781360   -1.7103068307    6.4992637689
Cl       2.8310739104   -3.3376080577    5.0127022178
Cl       0.0711441466   -3.1603164634    4.0714704857
H        2.4301783099   -0.9306081824   -1.0268698096
H        0.1380522629   -0.6124065758   -0.0700746885
H        4.3725713915   -1.2888031518    0.5229058375
18   
torsion grid (-30,)
C        2.2422138835   -0.9344826992    0.0535879068
C        0.9777152102   -0.7426338420    0.6098704864
C        3.3418517276   -1.1863579783    0.8748051484
C        0.8190189381   -0.7933632430    1.9938810991
C        1.9031923369   -1.0726174143    2.8428824524
C        3.1582625147   -1.2530364343    2.2523187616
C        1.4402479900   -2.2329372070    4.9120819150
N       -0.5300106248   -0.5291618668    2.5296110723
O       -0.6174166565    0.0041844137    3.6354890218
O       -1.4829932459   -0.8432386109    1.8099548113
O        1.8027677581   -1.0902643307    4.2182566129
F        4.2172200480   -1.4889051078    3.0428511377
Cl       0.6283161046   -1.6766995287    6.3966931596
Cl       2.9147864589   -3.1935486257    5.3535030134
Cl       0.3423907968   -3.3177101222    3.9678655329
H        2.3719695126   -0.8828765037   -1.0227334419
H        0.1089284082   -0.5473882183   -0.0075923355
H        4.3389529577   -1.3334694473    0.4717524895
18   
torsion grid (-15,)
C        2.2213695053   -0.9268970367   -0.0010857882
C        0.9710568395   -0.6936517735    0.5709657393
C        3.3195389083   -1.2314183529    0.8049866162
C        0.8262925038   -0.7452824217    1.9567421447
C        1.9098813652   -1.0627113889    2.7910206618
C        3.1469514229   -1.3008531130    2.1831741656
C        1.4363831293   -2.2134389293    4.8710486219
N       -0.5091964152   -0.4557113648    2.5092760024
O       -0.5701453621    0.0962632208    3.6077449868
O       -1.4782183713   -0.7702797749    1.8111180810
O        1.8387229926   -1.0887450110    4.1668585917
F        4.1948692312   -1.6104193963    2.9635053521
Cl       0.3248373307   -1.6754269482    6.1609268864
Cl       2.8906340292   -2.9858154379    5.6262821323
Cl       0.6245695241   -3.4442436461    3.8257626745
H        2.3404349979   -0.8729036983   -1.0785248903
H        0.1021516800   -0.4678339706   -0.0359603833
H        4.3034687027   -1.4228989438    0.3884365312
18   
torsion grid (0,)
C        2.1590592306   -0.9325746136   -0.0028113804
C        0.9303877172   -0.6203646265    0.5791623657
C        3.2427922317   -1.3136407719    0.7923851232
C        0.7981036925   -0.6701470411    1.9660270307
C        1.8636150840   -1.0620233690    2.7862292169
C        3.0787220826   -1.3773844285    2.1707936708
C        1.5191296852   -2.2715963925    4.8559975793
N       -0.4995013851   -0.2821825660    2.5464421387
O       -0.4851201027    0.4116627157    3.5621968925
O       -1.5097637138   -0.6601959321    1.9444379217
O        1.7643154288   -1.0960591625    4.1591417859
F        4.1008710462   -1.7734026656    2.9470639482
Cl      -0.0066347977   -2.0599937085    5.7854956475
Cl       2.8797559100   -2.5383103663    6.0004471206
Cl       1.3501237222   -3.7127112933    3.7799060054
H        2.2736041029   -0.8813753920   -1.0808788855
H        0.0742316963   -0.3328440531   -0.0204882232
H        4.2069975343   -1.5697101331    0.3646661501
18   
torsion grid (15,)
C        2.1539596423   -0.9688094032   -0.0389560526
C        0.9333406551   -0.6484840456    0.5555778108
C        3.2478164790   -1.3431148347    0.7456040858
C        0.8189298907   -0.6895065750    1.9443798644
C        1.8904638812   -1.0858551434    2.7536539100
C        3.1002158287   -1.3990517155    2.1262691341
C        1.5162427287   -2.2914600777    4.8158429125
N       -0.4597062588   -0.2621347642    2.5387835501
O       -0.4097367303    0.4746130288    3.5226902826
O       -1.4890604147   -0.6513757969    1.9789000376
O        1.8144730051   -1.1225104714    4.1290283398
F        4.1343746066   -1.7815387233    2.8930415656
Cl      -0.1839573782   -2.2030384679    5.4221026207
Cl       2.6415748093   -2.3805694321    6.2036851183
Cl       1.6697833155   -3.7802135687    3.8028110206
H        2.2556175575   -0.9244887002   -1.1186398658
H        0.0723282166   -0.3562999026   -0.0349966984
H        4.2074454681   -1.5992289768    0.3077784186
18   
torsion grid (30,)
C        2.1115119107   -0.9878786558   -0.0598506636
C        0.9079133251   -0.6533012473    0.5607367743
C        3.2203621908   -1.3623587818    0.7024059938
C        0.8234062634   -0.6892014718    1.9518246567
C        1.9064190599   -1.1014030917    2.7392135862
C        3.1036356231   -1.4134164848    2.0866244042
C        1.5159384537   -2.3053260407    4.7887842011
N       -0.4278566661   -0.2137936855    2.5680202725
O       -0.3289204201    0.5316768534    3.5417381655
O       -1.4820103976   -0.5683459914    2.0328547120
O        1.8629419931   -1.1417115248    4.1184124475
F        4.1616737667   -1.7787839800    2.8281812665
Cl      -0.2757069535   -2.3585360911    5.0590085223
Cl       2.3583245548   -2.2381051472    6.3579472088
Cl       1.9703921276   -3.8123028728    3.8972917135
H        2.1896905570   -0.9477598137   -1.1416649002
H        0.0385245939   -0.3484098806   -0.0108144967
H        4.1707587236   -1.6194257830    0.2454504948
18   
torsion grid (45,)
C        2.0791333812   -1.0010791173   -0.0536004892
C        0.8950642451   -0.6473139943    0.5933062949
C        3.1985440542   -1.3865779533    0.6860254047
C        0.8383892280   -0.6845279168    1.9856644283
C        1.9289840640   -1.1217185446    2.7515113538
C        3.1111558969   -1.4374510343    2.0731142873
C        1.5236274377   -2.3261436017    4.7876902076
N       -0.3857550254   -0.1675634924    2.6233746800
O       -0.2457063488    0.5416615418    3.6190407643
O       -1.4587778331   -0.4505581013    2.0836775533
O        1.9121713265   -1.1684325559    4.1335985181
F        4.1907386836   -1.7936092236    2.7868519342
Cl      -0.2771257789   -2.5427517311    4.7207133622
Cl       2.0436717241   -2.1127996773    6.4743934920
Cl       2.2649975581   -3.8227059461    4.0862079234
H        2.1350532340   -0.9611711838   -1.1368068053
H        0.0198706533   -0.3233616342    0.0416743028
H        4.1384878377   -1.6485807990    0.2106168565
18   
torsion grid (60,)
C        2.0193815861   -0.9981621663   -0.1078419256
C        0.8590504915   -0.6189512129    0.5672091667
C        3.1452710241   -1.4117384921    0.6050162624
C        0.8309439469   -0.6622956011    1.9598372178
C        1.9274933826   -1.1313266401    2.7005695637
C        3.0878984764   -1.4668626464    1.9942134874
C        1.5103539145   -2.3219068843    4.7404423936
N       -0.3702015831   -0.1243285869    2.6247636829
O       -0.2037381378    0.5350854724    3.6502526899
O       -1.4546822926   -0.3424330322    2.0777229421
O        1.9361058842   -1.1800610869    4.0835261766
F        4.1824001761   -1.8359318829    2.6775914320
Cl      -0.2212847742   -2.7156807833    4.3732449997
Cl       1.6953837195   -1.9581749034    6.4710709936
Cl       2.4959928620   -3.7795068799    4.3052416996
H        2.0520903657   -0.9543981401   -1.1918352753
H       -0.0202576419   -0.2716222749    0.0370335229
H        4.0697521769   -1.6894275203    0.1085918771
18   
torsion grid (75,)
C        1.9830363466   -0.9717213319   -0.1002368626
C        0.8473908603   -0.5774111353    0.6075007892
C        3.1115121160   -1.4322527169    0.5785059743
C        0.8481240437   -0.6473632374    1.9990960876
C        1.9513749317   -1.1525193569    2.7065869953
C        3.0834134402   -1.5127102911    1.9676830910
C        1.5353729738   -2.3338615228    4.7606028617
N       -0.3394118701   -0.1253079717    2.7012680516
O       -0.1598181669    0.4619776480    3.7677284833
O       -1.4295618128   -0.2878675384    2.1455506188
O        1.9907848085   -1.2129560859    4.0872453676
F        4.1806307765   -1.9309552057    2.6176174040
Cl      -0.0663246575   -2.9179004557    4.1507968130
Cl       1.3897028355   -1.8304781702    6.4623544542
Cl       2.7072458044   -3.7111238984    4.6337296121
H        1.9930312883   -0.9076013535   -1.1836466663
H       -0.0362427702   -0.2036395898    0.1034032010
H        4.0159155574   -1.7279172908    0.0560950987
18   
torsion grid (90,)
C        1.9562644019   -0.9386912123   -0.1242581717
C        0.8455001910   -0.5255024160    0.6110344910
C        3.0782828198   -1.4544462674    0.5256745063
C        0.8658010639   -0.6201260749    2.0016337583
C        1.9704466053   -1.1616611182    2.6800321392
C        3.0703125426   -1.5599699837    1.9128454201
C        1.5584097359   -2.3217027475    4.7580809328
N       -0.3126301710   -0.1154326445    2.7314054286
O       -0.1314555946    0.3803621231    3.8433764690
O       -1.4014109762   -0.2051561558    2.1559504102
O        2.0512431669   -1.2350898114    4.0547984719
F        4.1524092697   -2.0496496942    2.5385071454
Cl       0.1234157253   -3.0870876282    3.9681146413
Cl       1.1055799341   -1.6973918512    6.3660633220
Cl       2.8419949503   -3.5873815575    4.9501792998
H        1.9496887078   -0.8538903178   -1.2062705404
H       -0.0375433963   -0.1232452333    0.1286397946
H        3.9598573531   -1.7779261860   -0.0188150893
18   
torsion grid (105,)
C        1.9147103146   -0.9651427814   -0.1647428573
C        0.8608521532   -0.4092939843    0.5592173879
C        2.9636663071   -1.6048986688    0.4989067246
C        0.8474992614   -0.5290018345    1.9482707198
C        1.8817679846   -1.1721779675    2.6428121093
C        2.9417027261   -1.6846987455    1.8865906066
C        1.6931952620   -2.2746571412    4.8008098024
N       -0.3085004727    0.0316551181    2.6670402406
O       -0.7401447913   -0.5963009553    3.6340251650
O       -0.7833909706    1.0814687546    2.2229764888
O        1.9365613269   -1.1470790178    4.0209476487
F        3.9675739402   -2.2686468703    2.5262008865
Cl       0.8601577701   -3.5818671325    3.8861390149
Cl       0.6843068170   -1.7487485553    6.1815143542
Cl       3.2570359314   -2.9131562296    5.4492893870
H        1.9250420272   -0.8922712038   -1.2475471364
H        0.0457625256    0.1112735369    0.0698875371
H        3.8070240537   -2.0305105537   -0.0358342523
18   
torsion grid (120,)
C        1.8894858107   -0.9583177912   -0.1823812649
C        0.8644666845   -0.3705056509    0.5571687204
C        2.9220056518   -1.6431017364    0.4638400049
C        0.8594967664   -0.5019193390    1.9458311546
C        1.8758004583   -1.1857009074    2.6226091983
C        2.9090733138   -1.7301332569    1.8499559597
C        1.7298506496   -2.2850193656    4.7948006498
N       -0.2707791855    0.0855614457    2.6785664191
O       -0.7764702064   -0.5945415651    3.5717669217
O       -0.6519886435    1.2025633766    2.3177588139
O        1.9925116396   -1.1719260575    3.9970386016
F        3.9155952572   -2.3525934397    2.4854591653
Cl       1.1806145236   -3.7125873126    3.8532302783
Cl       0.4807055137   -1.8445047987    6.0065853820
Cl       3.2476946788   -2.6785971091    5.6905610601
H        1.8907738742   -0.8757889522   -1.2645596641
H        0.0641897949    0.1837308339    0.0799394429
H        3.7433671607   -2.0942196231   -0.0839268025
18   
torsion grid (135,)
C        1.8741956777   -1.1441731413   -0.1539434320
C        0.7724682488   -0.5914862661    0.4976208054
C        2.9601919779   -1.6225826699    0.5825273056
C        0.7805507396   -0.4903615914    1.8882076451
C        1.8571990931   -0.9562595601    2.6547948861
C        2.9297504737   -1.5378085819    1.9695481995
C        2.5286502468   -0.1538690962    4.8505535545
N       -0.3798113525    0.1470897424    2.5305504165
O       -1.4880326933   -0.0903463754    2.0407468388
O       -0.1628325503    0.8954769740    3.4838101919
O        1.7870557596   -1.0016240622    4.0314428640
F        3.9575355404   -2.0279300764    2.6812067467
Cl       3.2467285961    1.2270560927    3.9446310350
Cl       3.8541887532   -1.0956902730    5.6400286182
Cl       1.4282091102    0.4580294150    6.1218672043
H        1.8845695774   -1.2111442847   -1.2371355718
H       -0.0913426959   -0.2316836435   -0.0494854788
H        3.8239272360   -2.0741910594    0.1046841372
18   
torsion grid (150,)
C        1.8721739248   -1.2116122609   -0.1107694087
C        0.8515504322   -0.5290516221    0.5509250409
C        2.8987064602   -1.8188934048    0.6136247694
C        0.8561046617   -0.4661774501    1.9433823818
C        1.8906416504   -1.0447624180    2.6969804946
C        2.8949469311   -1.7264262634    2.0018272674
C        2.4713640907   -0.0029964617    4.7995646189
N       -0.2751089351    0.2216245524    2.5936963119
O       -0.7895394811    1.1533065429    1.9675884856
O       -0.6449164176   -0.1903591719    3.6930638999
O        1.9116310089   -1.0433769430    4.0760267498
F        3.8790789019   -2.3151836805    2.6996869180
Cl       2.3579914089    1.5903616012    3.9482825040
Cl       4.2198787471   -0.3337786796    5.1363978595
Cl       1.5664871291    0.0751144063    6.3339949016
H        1.8653538262   -1.2743006745   -1.1942786628
H        0.0457098391   -0.0475823099    0.0095468472
H        3.7029949155   -2.3615954200    0.1268881709
18   
torsion grid (165,)
C        1.9128132976   -1.2145659895   -0.0866538320
C        0.8961403548   -0.5004941276    0.5476808437
C        2.8943980028   -1.8588161090    0.6667838534
C        0.8674219059   -0.4348258540    1.9392693506
C        1.8694583338   -1.0333294678    2.7210013608
C        2.8590020098   -1.7642968507    2.0548806853
C        2.4683445855    0.0232166402    4.7983514618
N       -0.2823885438    0.2512347303    2.5586339670
O       -0.7453164445    1.2197415456    1.9491493087
O       -0.7199368026   -0.2049208085    3.6145630482
O        1.8566415040   -1.0057786552    4.1027833687
F        3.7909338956   -2.4076708307    2.7752733699
Cl       2.0845009619    1.6572623519    4.1139329611
Cl       4.2716234329   -0.1554318085    4.8063175381
Cl       1.8406789015   -0.0948218251    6.4592377984
H        1.9328252662   -1.2795085006   -1.1698929619
H        0.1150350003   -0.0022358936   -0.0145964728
H        3.6872448177   -2.4371652642    0.2029386773
18   
torsion grid (180,)
C        1.9703285411   -1.2365251030   -0.0574499365
C        0.9548444223   -0.4903252856    0.5408089797
C        2.9084371755   -1.9061134772    0.7289238039
C        0.8878101056   -0.4140876844    1.9306637419
C        1.8526545497   -1.0279782829    2.7451878679
C        2.8349403285   -1.7994804955    2.1143972167
C        2.4587894764    0.0372337904    4.8063464078
N       -0.2792552659    0.2758535234    2.5106291824
O       -0.6855443642    1.2789837162    1.9176531073
O       -0.7877017289   -0.2187073419    3.5161320573
O        1.8101983275   -0.9799844019    4.1273839625
F        3.7204806352   -2.4699969280    2.8676666548
Cl       1.8218666261    1.6737076622    4.3568802189
Cl       4.2442926654    0.0488650042    4.4932403044
Cl       2.1489636031   -0.2843822302    6.5277105583
H        2.0202990709   -1.3106681553   -1.1391357499
H        0.2010274816    0.0197506881   -0.0478133552
H        3.6950620733   -2.5136774847    0.2926973906
