20   
torsion grid (-165,)
C        0.5540566930   -0.2110454749   -1.7950105312
C       -1.2396252345    1.1148001895   -0.5010555886
C        0.9066712071   -1.0949728249   -0.5952013290
C       -0.9839378572    0.3825910598    0.8239243570
C       -0.8861849571    0.3344714001   -1.7824999554
N       -2.6892996675   -2.3537791811   -0.6341982033
N       -1.8727343735   -0.7146843983   -2.1548227102
N       -2.2441902816   -1.5331559373   -1.3027935106
O        1.5915740342    1.0492511767    0.8242288752
O        0.8895249789   -1.0619730178    2.0933861252
S        0.7443278747   -0.1529921950    0.9472375254
H        1.2448603095    0.6376154046   -1.8178980494
H        0.7047674222   -0.7837685184   -2.7150829811
H       -2.2933963369    1.4093537469   -0.5425784595
H       -0.6466606120    2.0345911914   -0.5017032477
H        0.2772214429   -1.9827947004   -0.4964308222
H        1.9519666026   -1.4146978911   -0.6234256438
H       -1.1307546334    1.0517921455    1.6763210514
H       -1.5993053432   -0.5049509362    0.9768850620
H       -0.9707281454    1.0376191521   -2.6132818840
20   
torsion grid (-150,)
C        0.5898453100   -0.1935683887   -1.7936199944
C       -1.2551194331    1.0637474051   -0.5061410381
C        0.9511816589   -1.0788846040   -0.5994653046
C       -0.9717385292    0.3448963668    0.8216980373
C       -0.8683234437    0.3021238181   -1.7876102032
N       -2.9510015052   -2.1513831050   -0.5917393853
N       -1.7895328993   -0.8028543874   -2.1715937923
N       -2.3521235805   -1.4634767374   -1.2895052042
O        1.5882173641    1.0773086954    0.8256837841
O        0.9357463706   -1.0533161934    2.0893185518
S        0.7697836081   -0.1451035477    0.9450681043
H        1.2542719824    0.6760643267   -1.8026619834
H        0.7640159203   -0.7537411710   -2.7170117109
H       -2.3193827628    1.3201676644   -0.5458254222
H       -0.6990631389    2.0061748697   -0.5074207834
H        0.3265119780   -1.9719269698   -0.5105775266
H        1.9993715026   -1.3887965712   -0.6243335479
H       -1.1369270517    1.0140629792    1.6706979612
H       -1.5592084314   -0.5598580652    0.9817270510
H       -0.9683717962    1.0016340067   -2.6206875129
20   
torsion grid (-135,)
C        0.6170157500   -0.1846218598   -1.7912847049
C       -1.2632381859    1.0170373387   -0.5067854859
C        1.0031723442   -1.0603265491   -0.5990731574
C       -0.9606672505    0.3015758772    0.8188495768
C       -0.8560180844    0.2636564331   -1.7843558878
N       -3.2125927289   -1.9246503440   -0.6039088652
N       -1.7185005979   -0.8980547828   -2.1457296525
N       -2.4663503930   -1.3851170522   -1.2900150078
O        1.5742950826    1.1167397749    0.8252463027
O        0.9900050266   -1.0320362414    2.0905811765
S        0.7956999733   -0.1314285195    0.9446418236
H        1.2535401607    0.7054981461   -1.8009809619
H        0.8070310995   -0.7391501002   -2.7149340423
H       -2.3335722988    1.2487995217   -0.5427656977
H       -0.7314689531    1.9732189176   -0.5080808731
H        0.3963956921   -1.9660205046   -0.5135533661
H        2.0581508993   -1.3457016819   -0.6245295512
H       -1.1520597799    0.9594943976    1.6710362749
H       -1.5180570535   -0.6240188323    0.9703884688
H       -0.9746275794    0.9483764521   -2.6287462894
20   
torsion grid (-120,)
C        0.7956565913   -0.3981851190   -1.6095491318
C       -1.1974148017    1.0034711411   -0.7950611881
C        0.9987153362   -1.0825895279   -0.2575072242
C       -1.1145324412    0.4813771546    0.6463223133
C       -0.6544553481    0.0471488624   -1.8675815994
N       -3.4676013186   -1.6167846184   -0.8793350794
N       -1.4733472972   -1.1791283104   -2.1032418320
N       -2.4968966097   -1.3475415924   -1.4300975014
O        1.4137409479    1.2764720589    0.9073847750
O        0.5968508036   -0.6608607207    2.3689091534
S        0.5941636050    0.0626349299    1.0888033462
H        1.4478212127    0.4781610292   -1.6717651921
H        1.0933568642   -1.0909353018   -2.4023237807
H       -2.2398125308    1.2588266238   -1.0161948919
H       -0.6236023773    1.9326505602   -0.8607969613
H        0.3677201870   -1.9659380877   -0.1284484485
H        2.0418282430   -1.3647315859   -0.0923633551
H       -1.4149787464    1.2502667054    1.3632234368
H       -1.7111658791   -0.4134562561    0.8338377905
H       -0.6478933178    0.5724124460   -2.8282145490
20   
torsion grid (-105,)
C        0.8035341338   -0.3965846917   -1.6079753665
C       -1.1966257464    0.9790401433   -0.7822334830
C        1.0433746784   -1.0634622909   -0.2527636548
C       -1.1052983719    0.4559486969    0.6569553979
C       -0.6609829725    0.0085381542   -1.8439090678
N       -3.6265797071   -1.4523681009   -1.0532294983
N       -1.4437947713   -1.2567851669   -1.9852478879
N       -2.5731128449   -1.2957385288   -1.4802745336
O        1.4023551819    1.3073336190    0.9086428660
O        0.6382520053   -0.6502151497    2.3734126694
S        0.6141365081    0.0729835812    1.0931305680
H        1.4320205159    0.4949408718   -1.6908708966
H        1.1055120960   -1.0913382565   -2.3975371416
H       -2.2400506454    1.2351098426   -0.9971823642
H       -0.6223158099    1.9072689426   -0.8563389519
H        0.4407911081   -1.9646613292   -0.1147478642
H        2.0966481260   -1.3103747227   -0.0960928734
H       -1.4195751618    1.2152138755    1.3779855600
H       -1.6850048028   -0.4521502106    0.8368593162
H       -0.6951303965    0.5005711121   -2.8225827136
20   
torsion grid (-90,)
C        0.7995689361   -0.4007649007   -1.6051172702
C       -1.1967352378    0.9626885225   -0.7590994937
C        1.0766017268   -1.0482001720   -0.2468427208
C       -1.0878475037    0.4459272050    0.6796430641
C       -0.6751760752   -0.0250967939   -1.8127735525
N       -3.7468370945   -1.3456720691   -1.2943958815
N       -1.4332346000   -1.3122350833   -1.8618980412
N       -2.6343041866   -1.2653862875   -1.5604034358
O        1.4102390841    1.3318577577    0.9004960146
O        0.6896876631   -0.6305445224    2.3809748567
S        0.6417413351    0.0870596376    1.0981360190
H        1.4103002911    0.5002946100   -1.7115925400
H        1.0981499283   -1.1007257105   -2.3914476803
H       -2.2430332374    1.2159910468   -0.9630797137
H       -0.6240444005    1.8905466097   -0.8491288185
H        0.4976256058   -1.9617429032   -0.0928471628
H        2.1381157158   -1.2670744081   -0.1046176853
H       -1.4056931504    1.2001268380    1.4042556545
H       -1.6529374266   -0.4717794165    0.8594471977
H       -0.7540342503    0.4380004308   -2.8037087300
20   
torsion grid (-75,)
C        0.7825096087   -0.4128878126   -1.5973707672
C       -1.2009531556    0.9508527713   -0.7227321107
C        1.0972324439   -1.0389281615   -0.2366242534
C       -1.0591019601    0.4479628409    0.7171461448
C       -0.6983512910   -0.0518867886   -1.7734968526
N       -3.8265605036   -1.2923666286   -1.6131742605
N       -1.4478374140   -1.3442930433   -1.7501189631
N       -2.6831601999   -1.2541247366   -1.6812404626
O        1.4371547638    1.3585403495    0.8733771057
O        0.7651272042   -0.5894476489    2.3943695658
S        0.6825576211    0.1105075936    1.1033397791
H        1.3829492207    0.4914558935   -1.7300491186
H        1.0685664406   -1.1212695815   -2.3808403794
H       -2.2535752502    1.1932095891   -0.9076524941
H       -0.6368056588    1.8814812286   -0.8363009897
H        0.5309614462   -1.9554623591   -0.0565032838
H        2.1641389356   -1.2449268686   -0.1172993305
H       -1.3729805348    1.2012183753    1.4443248772
H       -1.6077916806   -0.4777472284    0.9068631723
H       -0.8159269134    0.3913826072   -2.7700172985
20   
torsion grid (-60,)
C        0.7557399739   -0.4277683758   -1.5886137042
C       -1.2059995444    0.9479188323   -0.6807169281
C        1.1057771516   -1.0352976455   -0.2279733915
C       -1.0266521718    0.4634940714    0.7608254779
C       -0.7285302503   -0.0705455473   -1.7302089112
N       -3.8456371127   -1.2961469045   -1.9554621742
N       -1.4833214230   -1.3567872651   -1.6428750342
N       -2.7091341835   -1.2635486222   -1.8138190242
O        1.4719139802    1.3777671816    0.8405578743
O        0.8421989035   -0.5513702879    2.4030295025
S        0.7243268366    0.1324310111    1.1061539161
H        1.3508450084    0.4760964755   -1.7464326789
H        1.0238158302   -1.1450596586   -2.3702628608
H       -2.2649809100    1.1791094139   -0.8435676315
H       -0.6503521365    1.8801849179   -0.8213113797
H        0.5456119494   -1.9495998810   -0.0199831811
H        2.1757574897   -1.2381934107   -0.1332419397
H       -1.3231293497    1.2241784659    1.4876048083
H       -1.5683897243   -0.4618381060    0.9704630776
H       -0.8817071942    0.3582457264   -2.7281657371
20   
torsion grid (-45,)
C        0.7201616867   -0.4406441255   -1.5814002412
C       -1.2079171096    0.9593532359   -0.6374518564
C        1.1008890109   -1.0368351827   -0.2236424468
C       -0.9942374509    0.4891482804    0.8036220388
C       -0.7651650473   -0.0761530156   -1.6869731338
N       -3.8009477517   -1.3659146148   -2.2818300357
N       -1.5354721912   -1.3479258861   -1.5410424629
N       -2.7093781187   -1.2979392738   -1.9403384722
O        1.5137607306    1.3836872079    0.8081785271
O        0.9073572671   -0.5216040798    2.4086904387
S        0.7620760154    0.1483521765    1.1072812766
H        1.3159453462    0.4586923795   -1.7618581819
H        0.9649681239   -1.1666224129   -2.3626125577
H       -2.2701622822    1.1905022037   -0.7769497936
H       -0.6516103193    1.8873469210   -0.8029593093
H        0.5402172132   -1.9449540309    0.0085712948
H        2.1716233014   -1.2461123530   -0.1545392109
H       -1.2661899436    1.2586389008    1.5307877663
H       -1.5367892933   -0.4307276467    1.0335207139
H       -0.9509760648    0.3429817070   -2.6830542735
20   
torsion grid (-30,)
C        0.6755223940   -0.4512597152   -1.5759775330
C       -1.2068937489    0.9836775510   -0.5929785561
C        1.0821544249   -1.0420749248   -0.2234614412
C       -0.9632508279    0.5210656381    0.8457261760
C       -0.8074581251   -0.0667737667   -1.6455884155
N       -3.6954746691   -1.4951656472   -2.5788403516
N       -1.6028728966   -1.3174217209   -1.4525906568
N       -2.6840627507   -1.3530353340   -2.0591178606
O        1.5562266717    1.3804339942    0.7780646539
O        0.9688368171   -0.5056417281    2.4077496481
S        0.7956567482    0.1579092549    1.1063951934
H        1.2794809346    0.4381135544   -1.7785839375
H        0.8907008240   -1.1868260862   -2.3570516140
H       -2.2692408925    1.2257385913   -0.7081285742
H       -0.6413745858    1.9021617010   -0.7798159770
H        0.5146773439   -1.9400650620    0.0307650090
H        2.1511296810   -1.2667357267   -0.1800981712
H       -1.2057851219    1.3000083972    1.5732589992
H       -1.5135300995   -0.3892064923    1.0944296540
H       -1.0162889983    0.3483679134   -2.6381561647
20   
torsion grid (-15,)
C        0.6268196517   -0.4561953200   -1.5742701563
C       -1.2016892241    1.0205281237   -0.5546671377
C        1.0530847651   -1.0521099016   -0.2299714611
C       -0.9364445766    0.5558655756    0.8794944220
C       -0.8516943050   -0.0438021291   -1.6096160560
N       -3.5362659821   -1.6691460521   -2.8093263692
N       -1.6784650104   -1.2671470160   -1.3729600148
N       -2.6324148076   -1.4237310920   -2.1485539433
O        1.5977640923    1.3618429445    0.7542794295
O        1.0056914465   -0.5057520200    2.4028299932
S        0.8189682690    0.1567427337    1.1029500765
H        1.2424039893    0.4218016374   -1.7924124214
H        0.8112011107   -1.1962859856   -2.3591570630
H       -2.2604529743    1.2850008922   -0.6465889505
H       -0.6180103097    1.9241080539   -0.7574230271
H        0.4744615519   -1.9385728300    0.0390474878
H        2.1183858633   -1.2965874468   -0.2103537100
H       -1.1463747633    1.3407683432    1.6107852205
H       -1.5008893100   -0.3419400138    1.1411489470
H       -1.0779263537    0.3678818940   -2.5992351859
20   
torsion grid (0,)
C        0.5724997570   -0.4600643775   -1.5745454788
C       -1.1986089385    1.0596984934   -0.5170920012
C        1.0141955389   -1.0646297862   -0.2394440187
C       -0.9128779846    0.5882708687    0.9110566210
C       -0.8975723874   -0.0107039521   -1.5785205884
N       -3.3260647909   -1.8564419528   -2.9909706520
N       -1.7633311032   -1.2018873256   -1.3162473620
N       -2.5566765699   -1.4960638413   -2.2214247907
O        1.6361523263    1.3383240087    0.7263804340
O        1.0414901664   -0.5133777749    2.3916547768
S        0.8384268165    0.1516109860    1.0956035391
H        1.2050643140    0.4020537082   -1.8081026306
H        0.7223732562   -1.2047604288   -2.3628230003
H       -2.2524370606    1.3479925001   -0.5860656784
H       -0.5968406812    1.9483244342   -0.7318729669
H        0.4204980747   -1.9364278866    0.0445479518
H        2.0735360553   -1.3343758615   -0.2427991684
H       -1.0899052463    1.3776217901    1.6463016149
H       -1.4915438287   -0.2966973808    1.1851873349
H       -1.1302245912    0.4048041700   -2.5648238559
20   
torsion grid (15,)
C        0.5187601787   -0.4553949696   -1.5820970097
C       -1.1929635060    1.1051121237   -0.4872773567
C        0.9680777728   -1.0780859494   -0.2579112544
C       -0.8955976287    0.6193033769    0.9338147216
C       -0.9404848863    0.0326136886   -1.5565407032
N       -3.0768308110   -2.0625430467   -3.0842842047
N       -1.8452055229   -1.1239429201   -1.2736687243
N       -2.4584646450   -1.5725179445   -2.2528445806
O        1.6695573848    1.2999812145    0.7117000307
O        1.0529121367   -0.5468277097    2.3745949680
S        0.8459815219    0.1332314613    1.0869014966
H        1.1698255741    0.3903774325   -1.8250569218
H        0.6361670613   -1.2000531114   -2.3765011904
H       -2.2395499474    1.4212709965   -0.5370424864
H       -0.5701835125    1.9770124166   -0.7094149216
H        0.3563876287   -1.9353901851    0.0318818328
H        2.0197670801   -1.3753896738   -0.2800680384
H       -1.0378526903    1.4104242079    1.6746992414
H       -1.4944708841   -0.2498904973    1.2146111974
H       -1.1776791819    0.4539794802   -2.5394960163
20   
torsion grid (30,)
C        0.4663870162   -0.4516767858   -1.5923887815
C       -1.1880254090    1.1471575409   -0.4630140708
C        0.9192508746   -1.0935990606   -0.2785821856
C       -0.8822534685    0.6430299046    0.9498107740
C       -0.9780833246    0.0794653954   -1.5436902155
N       -2.8095607229   -2.2552143517   -3.1078632453
N       -1.9283805892   -1.0383160614   -1.2580776498
N       -2.3516224854   -1.6383464830   -2.2575500194
O        1.6965065345    1.2602416497    0.6941299697
O        1.0546869623   -0.5789674178    2.3565245866
S        0.8480804020    0.1131167239    1.0750621989
H        1.1377142010    0.3760237117   -1.8425190939
H        0.5521418568   -1.1944757714   -2.3932193173
H       -2.2274767162    1.4877033960   -0.4947326180
H       -0.5478881986    2.0054711320   -0.6873399688
H        0.2906521901   -1.9366599957    0.0169979024
H        1.9624804953   -1.4175084572   -0.3189993773
H       -0.9944291503    1.4315834337    1.6985831292
H       -1.4983952778   -0.2131832322    1.2332115648
H       -1.2136320674    0.5174251202   -2.5203435021
20   
torsion grid (45,)
C        0.4209945588   -0.4380495910   -1.6103828034
C       -1.1804242716    1.1895944151   -0.4464708049
C        0.8677231674   -1.1078036702   -0.3083373379
C       -0.8772626179    0.6602184970    0.9577103608
C       -1.0075405059    0.1314920418   -1.5422718810
N       -2.5389187342   -2.4492653199   -3.0350550780
N       -2.0008747054   -0.9489041233   -1.2627895068
N       -2.2397897611   -1.7011762897   -2.2204171692
O        1.7145226032    1.2117900446    0.6880147846
O        1.0393635450   -0.6342596559    2.3299173329
S        0.8392610230    0.0825033916    1.0611215906
H        1.1118704038    0.3744551079   -1.8564968917
H        0.4839150801   -1.1721908769   -2.4217616867
H       -2.2107469231    1.5574399078   -0.4661748402
H       -0.5197363969    2.0332270216   -0.6658093472
H        0.2208848468   -1.9381640782   -0.0159523777
H        1.9017160593   -1.4583863515   -0.3611422464
H       -0.9620083645    1.4422727647    1.7168251832
H       -1.5139354857   -0.1826266290    1.2355747864
H       -1.2408603980    0.5911037848   -2.5101019872
20   
torsion grid (60,)
C        0.3869819589   -0.4188368380   -1.6321603564
C       -1.1724163452    1.2261338055   -0.4373535553
C        0.8207874074   -1.1210473457   -0.3423591122
C       -0.8781917696    0.6669562159    0.9568199692
C       -1.0260383219    0.1842741218   -1.5526166840
N       -2.2971937182   -2.6251332357   -2.8794581479
N       -2.0640257610   -0.8589610458   -1.2957320326
N       -2.1393921856   -1.7528251836   -2.1535504441
O        1.7263015250    1.1600003889    0.6881462178
O        1.0089751127   -0.6934257755    2.3035955550
S        0.8239406856    0.0475451427    1.0465805852
H        1.0955653179    0.3821634719   -1.8644068825
H        0.4367002138   -1.1389344119   -2.4570226031
H       -2.1948621274    1.6157905089   -0.4482642826
H       -0.4951912066    2.0594879652   -0.6445123090
H        0.1579350949   -1.9423941913   -0.0600782685
H        1.8462380421   -1.4942311075   -0.4050730670
H       -0.9431446493    1.4377950240    1.7292104087
H       -1.5337767067   -0.1654122503    1.2220837654
H       -1.2510394436    0.6743251319   -2.5078486762
20   
torsion grid (75,)
C        0.3656259555   -0.3933136267   -1.6583966649
C       -1.1640396227    1.2567839002   -0.4351973309
C        0.7816754062   -1.1308813020   -0.3820080568
C       -0.8864891298    0.6631723166    0.9479867346
C       -1.0341126625    0.2356998157   -1.5730888991
N       -2.0978229264   -2.7760044319   -2.6446929422
N       -2.1134408752   -0.7737011713   -1.3522850046
N       -2.0548160396   -1.7936844572   -2.0559173959
O        1.7277423028    1.1097885353    0.6992929843
O        0.9694103901   -0.7635337655    2.2725991069
S        0.8025158434    0.0082452850    1.0316249633
H        1.0886774711    0.4009297528   -1.8672102615
H        0.4121909860   -1.0941236965   -2.4996116396
H       -2.1794304275    1.6647060918   -0.4414380801
H       -0.4718425851    2.0823500923   -0.6230083232
H        0.1068152821   -1.9482644676   -0.1166008405
H        1.8004880264   -1.5207539409   -0.4507294954
H       -0.9400809263    1.4185707261    1.7363171981
H       -1.5600742062   -0.1612189962    1.1925348314
H       -1.2448391390    0.7585037314   -2.5141708035
20   
torsion grid (90,)
C        0.3547622014   -0.3685530421   -1.6857486398
C       -1.1577939033    1.2781423651   -0.4365266552
C        0.7573364990   -1.1366817125   -0.4221070271
C       -0.9008465995    0.6485273869    0.9340163144
C       -1.0335487862    0.2818371791   -1.5988820257
N       -1.9559931740   -2.8824728603   -2.3630411246
N       -2.1503074025   -0.6975654395   -1.4333336482
N       -1.9928553147   -1.8161567696   -1.9428669500
O        1.7201455413    1.0665775270    0.7148813436
O        0.9247366991   -0.8309751380    2.2408735747
S        0.7785138658   -0.0295918126    1.0164008000
H        1.0893478274    0.4203638960   -1.8728177788
H        0.3997212684   -1.0516152090   -2.5412684004
H       -2.1673721345    1.7002039684   -0.4416436630
H       -0.4528978185    2.0983653221   -0.5996037512
H        0.0826640059   -1.9602926757   -0.1764965256
H        1.7752862358   -1.5282641550   -0.4952363145
H       -0.9521670556    1.3844983374    1.7406506694
H       -1.5874455934   -0.1726107566    1.1526534337
H       -1.2231332388    0.8395339802   -2.5239035515
20   
torsion grid (105,)
C        0.3549753149   -0.3520974912   -1.7089883108
C       -1.1559208405    1.2839682546   -0.4380177167
C        0.7519234323   -1.1368334112   -0.4520661653
C       -0.9182479793    0.6194317059    0.9187245117
C       -1.0231592893    0.3187737739   -1.6277262154
N       -1.9003699274   -2.9334972091   -2.0834344362
N       -2.1756986458   -0.6294141632   -1.5478549664
N       -1.9692012603   -1.8141650551   -1.8404307156
O        1.7042611545    1.0488723074    0.7278696194
O        0.9021216112   -0.8755039545    2.2160713518
S        0.7629100621   -0.0540434371    1.0042365869
H        1.0989678196    0.4305344576   -1.8847566593
H        0.3960867226   -1.0265178571   -2.5715309433
H       -2.1629618343    1.7118565049   -0.4458199675
H       -0.4446629774    2.1044596764   -0.5706462755
H        0.0846194592   -1.9697211214   -0.2195343237
H        1.7721765739   -1.5221220319   -0.5280546684
H       -0.9847272335    1.3331418778    1.7440093057
H       -1.6048271440   -0.2096643144    1.1072017117
H       -1.1801118954    0.9158118793   -2.5332516428
20   
torsion grid (120,)
C        0.3676052277   -0.3391804485   -1.7298862472
C       -1.1583504722    1.2778850356   -0.4426924781
C        0.7661703496   -1.1317827037   -0.4769072522
C       -0.9385290834    0.5794273828    0.8995076038
C       -1.0047249975    0.3473065002   -1.6584824498
N       -1.9289557520   -2.9368301132   -1.7975474063
N       -2.1807766862   -0.5726338206   -1.6804999126
N       -1.9797699064   -1.7913913257   -1.7384992251
O        1.6788820635    1.0493320273    0.7487185284
O        0.8888921911   -0.9107590493    2.1946014241
S        0.7510781385   -0.0716174034    0.9950303418
H        1.1171870945    0.4392059032   -1.9007688257
H        0.4046238790   -1.0098366393   -2.5956499989
H       -2.1657191695    1.7045586961   -0.4559797567
H       -0.4465839092    2.1030830506   -0.5407142506
H        0.1132378252   -1.9782769180   -0.2555758957
H        1.7925196420   -1.5009735792   -0.5524798825
H       -1.0293877609    1.2701733392    1.7418714381
H       -1.6169456946   -0.2632054663    1.0570999493
H       -1.1222998564    0.9787859235   -2.5451456238
20   
torsion grid (135,)
C        0.3897298993   -0.3239932786   -1.7501495300
C       -1.1653710579    1.2628355903   -0.4491230655
C        0.7941421436   -1.1236021910   -0.5019942008
C       -0.9596614759    0.5321093086    0.8779221858
C       -0.9826189049    0.3676612982   -1.6886023619
N       -2.0208928451   -2.8918167454   -1.5035853516
N       -2.1622384118   -0.5363806874   -1.8124170239
N       -2.0151543772   -1.7506113356   -1.6313929511
O        1.6500174910    1.0540201166    0.7692541194
O        0.8782016435   -0.9435486690    2.1741318988
S        0.7410108290   -0.0884219167    0.9858739312
H        1.1405835677    0.4544973460   -1.9151846099
H        0.4264802293   -0.9901080856   -2.6193830187
H       -2.1752161736    1.6829660124   -0.4699299070
H       -0.4576336389    2.0951859042   -0.5113355072
H        0.1643974435   -1.9906278443   -0.2969721289
H        1.8309984069   -1.4633818717   -0.5739998230
H       -1.0786472284    1.1988465033    1.7360391384
H       -1.6242117729   -0.3268343325    1.0058404341
H       -1.0657626441    1.0244752696   -2.5589921478
20   
torsion grid (150,)
C        0.4248879563   -0.2986957222   -1.7700694291
C       -1.1771788094    1.2402323379   -0.4633273491
C        0.8269490521   -1.1149804854   -0.5322454741
C       -0.9787436350    0.4865287011    0.8531057597
C       -0.9585451525    0.3761028244   -1.7193495748
N       -2.1496674088   -2.8012914372   -1.1968203972
N       -2.1172476300   -0.5360202946   -1.9255250533
N       -2.0593800285   -1.7004516162   -1.5110627563
O        1.6227607552    1.0484607961    0.8003444878
O        0.8570406841   -0.9909559309    2.1481222503
S        0.7289125253   -0.1128435647    0.9758674027
H        1.1677875555    0.4922335180   -1.9111482701
H        0.4777268813   -0.9481032166   -2.6506639280
H       -2.1928984208    1.6456000709   -0.4912848988
H       -0.4818276454    2.0847860735   -0.4952158417
H        0.2155887635   -2.0004911162   -0.3550050731
H        1.8726873753   -1.4287062615   -0.5944789525
H       -1.1157820997    1.1380016565    1.7203823289
H       -1.6331713208   -0.3823926303    0.9640811253
H       -1.0217462745    1.0462566887   -2.5797062764
20   
torsion grid (165,)
C        0.4670078942   -0.2690769350   -1.7853417179
C       -1.1948679340    1.2075030941   -0.4786606726
C        0.8552440687   -1.1092101104   -0.5603868166
C       -0.9922170546    0.4447575836    0.8337233754
C       -0.9336244900    0.3733727086   -1.7466765028
N       -2.2988101816   -2.6699029757   -0.9279128878
N       -2.0500970268   -0.5703334087   -2.0213718218
N       -2.1078184316   -1.6432306870   -1.4054364144
O        1.6012384486    1.0409056635    0.8173546359
O        0.8492449956   -1.0303477407    2.1232447051
S        0.7221527369   -0.1355730480    0.9638433090
H        1.1972380104    0.5393929552   -1.8890837811
H        0.5474462091   -0.8943572748   -2.6805903810
H       -2.2199768617    1.5885262885   -0.5138036525
H       -0.5217475366    2.0705093119   -0.4879792652
H        0.2493606091   -2.0045141757   -0.4149061549
H        1.9053257693   -1.4108081687   -0.6086995829
H       -1.1391924189    1.0918038140    1.7028552264
H       -1.6363738495   -0.4311741010    0.9432545606
H       -0.9913798334    1.0550275976   -2.5974260806
20   
torsion grid (180,)
C        0.5116926602   -0.2363627886   -1.7941969684
C       -1.2171701472    1.1654637430   -0.4933689656
C        0.8790581319   -1.1031073123   -0.5837023846
C       -0.9933641277    0.4147265449    0.8250008246
C       -0.9099883671    0.3577379900   -1.7688519103
N       -2.4686341808   -2.5229967199   -0.7356329957
N       -1.9648075819   -0.6370892853   -2.0983287841
N       -2.1629842813   -1.5913735857   -1.3331990350
O        1.5931190385    1.0330279589    0.8304802901
O        0.8523506306   -1.0626885224    2.1033118104
S        0.7248565676   -0.1537827179    0.9548097584
H        1.2228771063    0.5935332216   -1.8525713364
H        0.6292887925   -0.8323805457   -2.7046388962
H       -2.2559573588    1.5080540972   -0.5330334456
H       -0.5795554590    2.0550701656   -0.4957308756
H        0.2643874194   -1.9978370364   -0.4684901550
H        1.9281714034   -1.4097555580   -0.6192450023
H       -1.1354174301    1.0742893882    1.6856728839
H       -1.6298748469   -0.4622972367    0.9566528779
H       -0.9798948466    1.0510385908   -2.6089376103
