43
1 1 C15H24NO3
C                     3.630501905845     2.432301304448    -0.360700955984
C                     3.838593837635     3.220371983017     0.939143432528
C                     2.919094431561     4.455302525894     1.003642509065
N                     3.401925847028     5.477367011314    -0.019616466905
C                     3.621258746339     2.402059647083     2.204873957061
C                     4.137406158845     2.877310069830     3.422776132935
C                     3.958382047657     2.146972101059     4.594922075227
C                     3.242829311319     0.942541073018     4.591049445272
C                     2.698098952707     0.472071538824     3.376736011656
C                     2.905650150055     1.197926064261     2.198494402988
O                     2.009539524718    -0.708477457111     3.357208917490
C                     0.569257849330    -0.620353533884     3.111584134222
C                     0.039939120798    -2.049714446881     3.166506928908
C                    -0.074273757509    -2.363390826762     4.676473797418
C                    -0.242552189878    -0.986476952870     5.384579645124
C                    -0.150271214529     0.080296085214     4.266509835147
O                     3.042755292705     0.311908917414     5.782063253929
C                     3.533864764865    -1.042009518455     5.898139433988
O                     5.151068453182     3.834682143818     0.921860891127
H                     4.260076971762     1.539404001887    -0.365148843901
H                     3.921696287183     3.029711169714    -1.231624714632
H                     2.592518060686     2.115408675440    -0.489061651606
H                     1.876842153061     4.217023886501     0.792235382594
H                     3.001444242946     4.939881475014     1.975972136754
H                     3.172276098235     5.201586085718    -0.980399289104
H                     4.433339105142     5.507562789014     0.060707902830
H                     3.015984667418     6.413802427092     0.144109210499
H                     4.705758210252     3.802907248403     3.454011749146
H                     4.362970686031     2.496750024481     5.539986672653
H                     2.494688080188     0.784761193710     1.283534480115
H                     0.414270125948    -0.134462357575     2.140905830478
H                    -0.946900471922    -2.065808281639     2.690994880948
H                     0.684657444574    -2.743738910179     2.621235301385
H                    -0.908409217015    -3.039292801547     4.880875257924
H                     0.832517886484    -2.864501621201     5.025548005111
H                    -1.193935470122    -0.914380838960     5.917803251670
H                     0.548828571521    -0.829129750016     6.120043626532
H                     0.353261253579     0.997064582331     4.585782465118
H                    -1.149004202645     0.364479778694     3.914888803375
H                     3.306560292427    -1.348090141572     6.919554841224
H                     4.618415024498    -1.057749481828     5.742985136204
H                     3.040547745302    -1.703146099660     5.184687943935
H                     5.823411520722     3.169093467737     1.146305531165
