
  -OEChem-12122420533D

 56 59  0     1  0  0  0  0  0999 V2000
   -0.8034   -4.6278   -3.4931 C   0  0  0  0  0  0  0  0  0  0  0  0
    0.5922   -4.0986   -3.1391 C   0  0  0  0  0  0  0  0  0  0  0  0
    0.6179   -3.2025   -1.8997 C   0  0  0  0  0  0  0  0  0  0  0  0
   -0.2936   -1.9948   -2.0241 N   0  3  2  0  0  0  0  0  0  0  0  0
   -1.2320   -2.3742   -2.1782 H   0  0  0  0  0  0  0  0  0  0  0  0
    0.0558   -1.1956   -3.2682 C   0  0  0  0  0  0  0  0  0  0  0  0
   -0.4872    0.2203   -3.1898 C   0  0  1  0  0  0  0  0  0  0  0  0
   -1.5618    0.1667   -2.9758 H   0  0  0  0  0  0  0  0  0  0  0  0
    0.2242    0.9780   -2.0550 C   0  0  0  0  0  0  0  0  0  0  0  0
    0.5788    0.0729   -0.8432 C   0  0  2  0  0  0  0  0  0  0  0  0
    1.5804   -0.3536   -0.9945 H   0  0  0  0  0  0  0  0  0  0  0  0
   -0.4229   -1.1089   -0.7517 C   0  0  2  0  0  0  0  0  0  0  0  0
   -1.4319   -0.6935   -0.8212 H   0  0  0  0  0  0  0  0  0  0  0  0
   -0.3736   -1.9719    0.5275 C   0  0  0  0  0  0  0  0  0  0  0  0
   -0.4991   -1.0486    1.6999 C   0  0  0  0  0  0  0  0  0  0  0  0
   -0.9536   -1.1893    2.9930 C   0  0  0  0  0  0  0  0  0  0  0  0
   -0.7106    0.0070    3.6728 N   0  0  0  0  0  0  0  0  0  0  0  0
   -0.0919    0.9182    2.8276 C   0  0  0  0  0  0  0  0  0  0  0  0
    0.0331    0.2645    1.5822 C   0  0  0  0  0  0  0  0  0  0  0  0
    0.5856    0.8740    0.4544 C   0  0  0  0  0  0  0  0  0  0  0  0
    1.0537    2.1773    0.6089 C   0  0  0  0  0  0  0  0  0  0  0  0
    0.9526    2.8309    1.8612 C   0  0  0  0  0  0  0  0  0  0  0  0
    0.3770    2.2286    2.9837 C   0  0  0  0  0  0  0  0  0  0  0  0
   -1.5993   -2.3764    3.6533 C   0  0  0  0  0  0  0  0  0  0  0  0
   -2.5629   -3.0006    2.8138 O   0  0  0  0  0  0  0  0  0  0  0  0
   -3.7535   -2.2303    2.6618 C   0  0  0  0  0  0  0  0  0  0  0  0
   -0.3223    0.9291   -4.5435 C   0  0  0  0  0  0  0  0  0  0  0  0
   -1.2968    0.2007   -5.9109 S   0  0  0  0  0  0  0  0  0  0  0  0
   -2.9396    0.9123   -5.5451 C   0  0  0  0  0  0  0  0  0  0  0  0
   -0.7383   -5.3594   -4.3020 H   0  0  0  0  0  0  0  0  0  0  0  0
   -1.2736   -5.1246   -2.6372 H   0  0  0  0  0  0  0  0  0  0  0  0
   -1.4790   -3.8389   -3.8473 H   0  0  0  0  0  0  0  0  0  0  0  0
    1.0448   -3.5971   -3.9988 H   0  0  0  0  0  0  0  0  0  0  0  0
    1.2508   -4.9411   -2.9031 H   0  0  0  0  0  0  0  0  0  0  0  0
    0.2743   -3.7706   -1.0373 H   0  0  0  0  0  0  0  0  0  0  0  0
    1.6192   -2.8198   -1.6915 H   0  0  0  0  0  0  0  0  0  0  0  0
    1.1458   -1.1862   -3.3431 H   0  0  0  0  0  0  0  0  0  0  0  0
   -0.3505   -1.7300   -4.1266 H   0  0  0  0  0  0  0  0  0  0  0  0
    1.1438    1.4314   -2.4394 H   0  0  0  0  0  0  0  0  0  0  0  0
   -0.4127    1.7997   -1.7180 H   0  0  0  0  0  0  0  0  0  0  0  0
   -1.1675   -2.7262    0.5184 H   0  0  0  0  0  0  0  0  0  0  0  0
    0.5865   -2.4954    0.5921 H   0  0  0  0  0  0  0  0  0  0  0  0
   -0.9620    0.1775    4.6375 H   0  0  0  0  0  0  0  0  0  0  0  0
    1.4977    2.7160   -0.2238 H   0  0  0  0  0  0  0  0  0  0  0  0
    1.3307    3.8451    1.9495 H   0  0  0  0  0  0  0  0  0  0  0  0
    0.3039    2.7654    3.9253 H   0  0  0  0  0  0  0  0  0  0  0  0
   -0.8547   -3.1497    3.8676 H   0  0  0  0  0  0  0  0  0  0  0  0
   -2.0509   -2.0793    4.6126 H   0  0  0  0  0  0  0  0  0  0  0  0
   -4.4274   -2.8126    2.0306 H   0  0  0  0  0  0  0  0  0  0  0  0
   -3.5498   -1.2611    2.1856 H   0  0  0  0  0  0  0  0  0  0  0  0
   -4.2358   -2.0559    3.6335 H   0  0  0  0  0  0  0  0  0  0  0  0
    0.7245    0.8944   -4.8647 H   0  0  0  0  0  0  0  0  0  0  0  0
   -0.5880    1.9858   -4.4410 H   0  0  0  0  0  0  0  0  0  0  0  0
   -3.6127    0.5677   -6.3330 H   0  0  0  0  0  0  0  0  0  0  0  0
   -2.8989    2.0040   -5.5712 H   0  0  0  0  0  0  0  0  0  0  0  0
   -3.3316    0.5767   -4.5813 H   0  0  0  0  0  0  0  0  0  0  0  0
  1  2  1  0  0  0  0
  1 30  1  0  0  0  0
  1 31  1  0  0  0  0
  1 32  1  0  0  0  0
  2  3  1  0  0  0  0
  2 33  1  0  0  0  0
  2 34  1  0  0  0  0
  3  4  1  0  0  0  0
  3 35  1  0  0  0  0
  3 36  1  0  0  0  0
  4  5  1  0  0  0  0
  4  6  1  0  0  0  0
  4 12  1  0  0  0  0
  6  7  1  0  0  0  0
  6 37  1  0  0  0  0
  6 38  1  0  0  0  0
  7  8  1  0  0  0  0
  7  9  1  0  0  0  0
  7 27  1  0  0  0  0
  9 10  1  0  0  0  0
  9 39  1  0  0  0  0
  9 40  1  0  0  0  0
 10 11  1  0  0  0  0
 10 12  1  0  0  0  0
 10 20  1  0  0  0  0
 12 13  1  0  0  0  0
 12 14  1  0  0  0  0
 14 15  1  0  0  0  0
 14 41  1  0  0  0  0
 14 42  1  0  0  0  0
 15 16  2  0  0  0  0
 15 19  1  0  0  0  0
 16 17  1  0  0  0  0
 16 24  1  0  0  0  0
 17 18  1  0  0  0  0
 17 43  1  0  0  0  0
 18 19  2  0  0  0  0
 18 23  1  0  0  0  0
 19 20  1  0  0  0  0
 20 21  2  0  0  0  0
 21 22  1  0  0  0  0
 21 44  1  0  0  0  0
 22 23  2  0  0  0  0
 22 45  1  0  0  0  0
 23 46  1  0  0  0  0
 24 25  1  0  0  0  0
 24 47  1  0  0  0  0
 24 48  1  0  0  0  0
 25 26  1  0  0  0  0
 26 49  1  0  0  0  0
 26 50  1  0  0  0  0
 26 51  1  0  0  0  0
 27 28  1  0  0  0  0
 27 52  1  0  0  0  0
 27 53  1  0  0  0  0
 28 29  1  0  0  0  0
 29 54  1  0  0  0  0
 29 55  1  0  0  0  0
 29 56  1  0  0  0  0
M  CHG  1   4   1
M  END
$$$$
