67
1 1 C24H37N4OS
C                    -4.995525813410    -2.422692959749    -0.026045774219
C                    -4.716679311316    -1.112442825275     0.721212170187
C                    -3.416016349161    -0.424063449832     0.306376740100
N                    -2.197206988920    -1.328839658917     0.444298725984
H                    -2.419078928113    -2.150135945766    -0.126863727378
C                    -1.972113879252    -1.862259780712     1.846722132370
C                    -1.378471697516    -0.824847547484     2.800607457717
H                    -1.121714274594    -1.391085610018     3.705047083637
C                    -0.106434269649    -0.223593860670     2.198440352828
C                    -0.305246930880     0.328575517709     0.776680483075
H                    -1.022414731940     1.159299578117     0.808440651489
C                    -0.891564104080    -0.776811364474    -0.141452883780
H                    -0.208823323488    -1.632808457497    -0.100720415216
C                    -1.070146897350    -0.398796232876    -1.627929168442
C                     0.262070235114     0.065971268704    -2.127980640065
C                     1.158117168682     0.669213756937    -1.203394227007
C                     1.000655234918     0.841901214450     0.175498499773
C                     2.043566376088     1.460151840432     0.854889593913
C                     3.217907969879     1.896347942553     0.175892149408
C                     3.366730868717     1.701631763820    -1.200743705361
C                     2.319529693192     1.075353620095    -1.892777467493
N                     2.127079826991     0.714735141672    -3.214630738371
C                     0.872151730241     0.102372495884    -3.365366469948
S                     0.258520604345    -0.417713836606    -4.928007013579
C                     1.255969517501    -1.940057276348    -5.202466239714
C                     4.309218124413     2.575204356039     0.972592935685
N                    -2.321800403186     0.251466306995     3.131886271915
C                    -3.437545389508    -0.083546376310     3.926749818417
O                    -3.764518452787    -1.269468743477     4.072680954303
N                    -4.139768326537     0.957173627243     4.453557331204
C                    -5.317658381616     0.646467005744     5.279776728272
C                    -6.603266093375     0.548029265219     4.456287636898
C                    -3.829309211803     2.367548577398     4.204647828571
C                    -2.837149763541     2.963331577290     5.210699057047
H                    -5.999732213711    -2.786105562638     0.205143091783
H                    -4.935498495974    -2.291648954660    -1.112872279040
H                    -4.307733348412    -3.227545038317     0.263420436059
H                    -4.749524801021    -1.269027325015     1.801526821340
H                    -5.508605675586    -0.390245983302     0.494492570861
H                    -3.465615203057    -0.153276231988    -0.747618912057
H                    -3.223119751559     0.462879143288     0.903688495912
H                    -2.911831029836    -2.246494199773     2.231445585258
H                    -1.264347832108    -2.688890475475     1.742966176753
H                     0.270630121006     0.564322583910     2.857218920383
H                     0.670864011944    -0.994932389763     2.172729367863
H                    -1.449535201476    -1.254344186741    -2.200306453927
H                    -1.797540661707     0.412829874917    -1.732446192015
H                     1.992018567817     1.626484514657     1.928145576713
H                     4.271561646556     2.029163627651    -1.705899509231
H                     2.727501557270     0.953260933281    -3.993085198085
H                     0.927631134684    -2.351791447516    -6.159673792508
H                     1.073068103723    -2.668306450374    -4.410141489673
H                     2.320803084065    -1.708595772955    -5.261448156987
H                     4.659835005386     1.935038231592     1.789504798840
H                     5.170772498916     2.819508995627     0.346650824781
H                     3.948146421584     3.507277901656     1.421488666433
H                    -1.847322997217     1.105476577720     3.401476580868
H                    -5.401277477458     1.431545171311     6.037427681345
H                    -5.127263670365    -0.294166446932     5.797111386893
H                    -7.457520436505     0.347788566367     5.110589931470
H                    -6.806035306774     1.478133800644     3.914363335697
H                    -6.528574402289    -0.269202935360     3.733416861288
H                    -4.772196985854     2.919153942830     4.251111101115
H                    -3.467317253929     2.486862634056     3.178365917201
H                    -2.669031677158     4.024065856716     4.999801390644
H                    -3.220065155487     2.874537556962     6.231286397201
H                    -1.867601560065     2.453442325605     5.179964571654
