56
1 1 C21H31N2OS
C                    -0.803427983318    -4.627798066707    -3.493103927110
C                     0.592171280761    -4.098608621460    -3.139052257407
C                     0.617937808166    -3.202507383727    -1.899699676920
N                    -0.293645583095    -1.994779983839    -2.024051124907
H                    -1.232006833496    -2.374187063172    -2.178241473485
C                     0.055793010733    -1.195595345570    -3.268225308841
C                    -0.487192147898     0.220319222130    -3.189786111752
H                    -1.561826986588     0.166702939519    -2.975794568452
C                     0.224196561762     0.978005804705    -2.055018046099
C                     0.578750986858     0.072917254063    -0.843152199959
H                     1.580413907479    -0.353570843414    -0.994516043718
C                    -0.422886247501    -1.108905000449    -0.751708838050
H                    -1.431889559840    -0.693452761406    -0.821213311862
C                    -0.373605857742    -1.971858948131     0.527530707530
C                    -0.499145763660    -1.048618412639     1.699901195588
C                    -0.953640205172    -1.189281144883     2.992974512976
N                    -0.710553001258     0.007016260093     3.672788636670
C                    -0.091853638293     0.918156020931     2.827574206662
C                     0.033108776535     0.264464142855     1.582207125001
C                     0.585568821372     0.874011714052     0.454385960183
C                     1.053710626728     2.177254520945     0.608883469673
C                     0.952557968983     2.830875854407     1.861235182504
C                     0.376980955284     2.228578503131     2.983728368911
C                    -1.599264501499    -2.376426906260     3.653342257904
O                    -2.562930021845    -3.000626558320     2.813846508426
C                    -3.753464755789    -2.230252973287     2.661783124145
C                    -0.322272302740     0.929137776287    -4.543531390254
S                    -1.296813668915     0.200668856133    -5.910864711834
C                    -2.939598450360     0.912251260527    -5.545074356985
H                    -0.738337477163    -5.359359874197    -4.301995585752
H                    -1.273603167981    -5.124648026789    -2.637218961447
H                    -1.478979140071    -3.838930441967    -3.847258527073
H                     1.044768807185    -3.597113469738    -3.998780938782
H                     1.250752904433    -4.941072695250    -2.903078105390
H                     0.274318560249    -3.770571102346    -1.037329152406
H                     1.619169814493    -2.819771896157    -1.691475625456
H                     1.145821842028    -1.186235629492    -3.343101534604
H                    -0.350491772896    -1.729983999246    -4.126606652120
H                     1.143811122089     1.431368648377    -2.439378726842
H                    -0.412721340671     1.799734101245    -1.718046724476
H                    -1.167491109044    -2.726199945377     0.518359516124
H                     0.586493198707    -2.495422392945     0.592081384137
H                    -0.961972343775     0.177476347224     4.637495339636
H                     1.497721998903     2.716005404623    -0.223832942934
H                     1.330666119351     3.845145538346     1.949499200106
H                     0.303878954873     2.765404901588     3.925346996091
H                    -0.854679637563    -3.149708193063     3.867625293178
H                    -2.050946466680    -2.079269322187     4.612639420375
H                    -4.427395995265    -2.812591114870     2.030590315869
H                    -3.549783288504    -1.261129677943     2.185631152768
H                    -4.235812212238    -2.055942613938     3.633475140921
H                     0.724523290203     0.894395191573    -4.864656569096
H                    -0.588007624507     1.985816917830    -4.440988298221
H                    -3.612688731996     0.567712974672    -6.332989796128
H                    -2.898866325761     2.003959853750    -5.571221272844
H                    -3.331566349846     0.576654942385    -4.581287379886
