
  -OEChem-12102412493D

 43 44  0     1  0  0  0  0  0999 V2000
    4.3276    2.3481   -0.1354 C   0  0  0  0  0  0  0  0  0  0  0  0
    3.8368    3.1400    1.0792 C   0  0  1  0  0  0  0  0  0  0  0  0
    2.4134    3.6658    0.8181 C   0  0  0  0  0  0  0  0  0  0  0  0
    2.0720    4.5850    1.9695 N   0  3  0  0  0  0  0  0  0  0  0  0
    3.8372    2.3381    2.3830 C   0  0  0  0  0  0  0  0  0  0  0  0
    4.3033    2.8949    3.5741 C   0  0  0  0  0  0  0  0  0  0  0  0
    4.2408    2.1641    4.7751 C   0  0  0  0  0  0  0  0  0  0  0  0
    3.7021    0.8803    4.8013 C   0  0  0  0  0  0  0  0  0  0  0  0
    3.2133    0.3032    3.5879 C   0  0  0  0  0  0  0  0  0  0  0  0
    3.2803    1.0412    2.4064 C   0  0  0  0  0  0  0  0  0  0  0  0
    2.7251   -0.9459    3.7019 O   0  0  0  0  0  0  0  0  0  0  0  0
    2.2534   -1.6426    2.5184 C   0  0  0  0  0  0  0  0  0  0  0  0
    2.0070   -3.0903    2.9514 C   0  0  0  0  0  0  0  0  0  0  0  0
    0.5699   -3.0763    3.4912 C   0  0  0  0  0  0  0  0  0  0  0  0
   -0.1680   -2.1843    2.4762 C   0  0  0  0  0  0  0  0  0  0  0  0
    0.8692   -1.1044    2.0658 C   0  0  0  0  0  0  0  0  0  0  0  0
    3.5979    0.0961    5.8959 O   0  0  0  0  0  0  0  0  0  0  0  0
    4.1117    0.5918    7.1358 C   0  0  0  0  0  0  0  0  0  0  0  0
    4.5793    4.3664    1.2111 O   0  0  0  0  0  0  0  0  0  0  0  0
    5.3293    1.9561    0.0620 H   0  0  0  0  0  0  0  0  0  0  0  0
    4.3694    2.9976   -1.0139 H   0  0  0  0  0  0  0  0  0  0  0  0
    3.6808    1.4972   -0.3616 H   0  0  0  0  0  0  0  0  0  0  0  0
    2.3643    4.2608   -0.0955 H   0  0  0  0  0  0  0  0  0  0  0  0
    1.6769    2.8634    0.7979 H   0  0  0  0  0  0  0  0  0  0  0  0
    2.7725    5.3401    1.9908 H   0  0  0  0  0  0  0  0  0  0  0  0
    2.1783    4.0634    2.8564 H   0  0  0  0  0  0  0  0  0  0  0  0
    1.1300    4.9851    1.9091 H   0  0  0  0  0  0  0  0  0  0  0  0
    4.7526    3.8831    3.5857 H   0  0  0  0  0  0  0  0  0  0  0  0
    4.6283    2.6122    5.6826 H   0  0  0  0  0  0  0  0  0  0  0  0
    2.9042    0.5974    1.4931 H   0  0  0  0  0  0  0  0  0  0  0  0
    3.0292   -1.5656    1.7490 H   0  0  0  0  0  0  0  0  0  0  0  0
    2.0693   -3.7336    2.0658 H   0  0  0  0  0  0  0  0  0  0  0  0
    2.7603   -3.4251    3.6681 H   0  0  0  0  0  0  0  0  0  0  0  0
    0.1349   -4.0758    3.5720 H   0  0  0  0  0  0  0  0  0  0  0  0
    0.5529   -2.6220    4.4877 H   0  0  0  0  0  0  0  0  0  0  0  0
   -0.4514   -2.7791    1.6014 H   0  0  0  0  0  0  0  0  0  0  0  0
   -1.0848   -1.7467    2.8801 H   0  0  0  0  0  0  0  0  0  0  0  0
    0.6695   -0.1535    2.5687 H   0  0  0  0  0  0  0  0  0  0  0  0
    0.8502   -0.9125    0.9876 H   0  0  0  0  0  0  0  0  0  0  0  0
    3.9399   -0.2021    7.8617 H   0  0  0  0  0  0  0  0  0  0  0  0
    3.5793    1.4969    7.4502 H   0  0  0  0  0  0  0  0  0  0  0  0
    5.1858    0.7961    7.0625 H   0  0  0  0  0  0  0  0  0  0  0  0
    5.5232    4.1623    1.3206 H   0  0  0  0  0  0  0  0  0  0  0  0
  1  2  1  0  0  0  0
  1 20  1  0  0  0  0
  1 21  1  0  0  0  0
  1 22  1  0  0  0  0
  2  3  1  0  0  0  0
  2  5  1  0  0  0  0
  2 19  1  0  0  0  0
  3  4  1  0  0  0  0
  3 23  1  0  0  0  0
  3 24  1  0  0  0  0
  4 25  1  0  0  0  0
  4 26  1  0  0  0  0
  4 27  1  0  0  0  0
  5  6  2  0  0  0  0
  5 10  1  0  0  0  0
  6  7  1  0  0  0  0
  6 28  1  0  0  0  0
  7  8  2  0  0  0  0
  7 29  1  0  0  0  0
  8  9  1  0  0  0  0
  8 17  1  0  0  0  0
  9 10  2  0  0  0  0
  9 11  1  0  0  0  0
 10 30  1  0  0  0  0
 11 12  1  0  0  0  0
 12 13  1  0  0  0  0
 12 16  1  0  0  0  0
 12 31  1  0  0  0  0
 13 14  1  0  0  0  0
 13 32  1  0  0  0  0
 13 33  1  0  0  0  0
 14 15  1  0  0  0  0
 14 34  1  0  0  0  0
 14 35  1  0  0  0  0
 15 16  1  0  0  0  0
 15 36  1  0  0  0  0
 15 37  1  0  0  0  0
 16 38  1  0  0  0  0
 16 39  1  0  0  0  0
 17 18  1  0  0  0  0
 18 40  1  0  0  0  0
 18 41  1  0  0  0  0
 18 42  1  0  0  0  0
 19 43  1  0  0  0  0
M  CHG  1   4   1
M  END
$$$$
