56
1 1 C21H31N2OS
C                     0.238740875687    -3.963752339078     4.624140711333
C                     0.920031959435    -3.754928724542     3.266837716235
C                     0.529803581859    -2.403534897894     2.675605952569
N                     1.241801924833    -2.147815498405     1.354475077377
H                     1.305199106247    -3.068642578350     0.908364871965
C                     2.674339647379    -1.673132433005     1.530865838720
C                     2.802451910177    -0.193633984878     1.916577657052
H                     3.861294608621     0.024947451043     1.739700026216
C                     1.966738184931     0.681942918944     0.966349787622
C                     0.510618039832     0.205565830290     0.807493985209
H                    -0.002565779207     0.256194140240     1.777875626917
C                     0.506164727848    -1.269482814299     0.334749777483
H                     1.139377114490    -1.326705503102    -0.557546432685
C                    -0.855701870348    -1.893561406489    -0.038001136267
C                    -1.494539003273    -0.987439171667    -1.046027428721
C                    -2.442707124495    -1.163325320206    -2.030110616728
N                    -2.716055649999     0.080885535708    -2.601477708210
C                    -1.943945739285     1.062472203221    -1.995765348847
C                    -1.174831442552     0.400076614180    -1.013787069031
C                    -0.260196672616     1.064445494456    -0.190733993220
C                    -0.139726739469     2.441216368791    -0.366093314095
C                    -0.916870855866     3.111567951983    -1.342310171737
C                    -1.821811967153     2.446277842976    -2.173112407495
C                    -3.130982834122    -2.426028712965    -2.471086972388
O                    -3.421109177095    -3.283257100812    -1.375714959420
C                    -4.485120635111    -2.802312202101    -0.556092052622
C                     2.531718858912     0.179713200461     3.387597532658
S                     3.272964979781    -1.018464021888     4.558116651911
C                     3.001613251564    -0.108983533236     6.116520639836
H                     0.503051186727    -4.940522335075     5.036250725324
H                     0.559419455422    -3.199285795202     5.338468222508
H                    -0.851829843655    -3.920917714044     4.537132293667
H                     0.627958519498    -4.556043859485     2.574827931122
H                     2.004706157662    -3.810506439527     3.400705040495
H                    -0.540121791327    -2.367230483685     2.481973682225
H                     0.788450363218    -1.598314220939     3.354950907748
H                     3.151716685166    -2.334762763007     2.253071613205
H                     3.152236617651    -1.829317414534     0.560303022610
H                     1.981039881688     1.712708913952     1.328590273573
H                     2.431222375616     0.697391961854    -0.026440122368
H                    -0.712089059823    -2.909211973067    -0.424342040467
H                    -1.505687766957    -1.976859365849     0.839711315107
H                    -3.377953188033     0.233963357993    -3.350710335587
H                     0.547978178451     3.028232939635     0.235679839528
H                    -0.800157424735     4.185833493773    -1.450869860486
H                    -2.396764609953     2.990833165642    -2.916839708010
H                    -4.046062160541    -2.183950586490    -3.034176959696
H                    -2.482785254854    -3.007742552442    -3.134808372597
H                    -4.631912578273    -3.540897598788     0.234030796337
H                    -5.414261914552    -2.707168092287    -1.134683021584
H                    -4.242759181867    -1.828483076701    -0.108585544347
H                     1.461082271555     0.284710616397     3.592964974411
H                     2.983242361977     1.160632739556     3.564342213011
H                     3.391298497526    -0.734928099522     6.921652774860
H                     1.936905692677     0.068831291608     6.287638340779
H                     3.544164521924     0.839117784656     6.109876560659
