56
1 1 C21H31N2OS
C                     0.483377028922    -3.744584918773     4.880370862082
C                     1.396852175794    -3.347648997797     3.712604649682
C                     0.651436307842    -2.427247418664     2.748386573076
N                     1.403562439164    -2.159704205291     1.456100295662
H                     1.529326033581    -3.083982637213     1.031332992514
C                     2.809027646117    -1.601960982185     1.627731520754
C                     2.851410978241    -0.117640798317     1.995638272232
H                     3.903676982935     0.154032711978     1.844647932332
C                     2.008281654613     0.697183677704     1.002259324505
C                     0.581285629278     0.155004678220     0.815044200983
H                     0.030446861704     0.237299185294     1.762063499648
C                     0.629048719804    -1.339798008765     0.406829873199
H                     1.253852115436    -1.416850470515    -0.489475743357
C                    -0.727453037496    -2.004908911910     0.084613721452
C                    -1.366257477853    -1.188530951519    -0.999332037886
C                    -2.279369609158    -1.437437279088    -2.002026986362
N                    -2.565846243368    -0.238895210220    -2.647779803959
C                    -1.818390063887     0.788498708848    -2.093548396618
C                    -1.071187497876     0.206287707382    -1.046311464589
C                    -0.182514310065     0.935758529333    -0.251419501270
C                    -0.065278708030     2.297518000895    -0.521505575186
C                    -0.820120719675     2.888014224113    -1.564188376389
C                    -1.697379343381     2.156426698611    -2.368508092100
C                    -2.996309080835    -2.684533510786    -2.409379332096
O                    -3.208161753350    -2.636387999765    -3.811543436356
C                    -3.992720007600    -3.727975427282    -4.287838285581
C                     2.530229463194     0.196485636198     3.469663302883
S                     3.265154170690     1.819228836225     3.901664617254
C                     2.579185477906     2.012671094907     5.580368825903
H                     1.020545122396    -4.390751367736     5.578583609541
H                     0.143814950928    -2.863839318880     5.434892623666
H                    -0.400386902529    -4.288235311366     4.531988474216
H                     1.729974437014    -4.250108135672     3.183019110001
H                     2.290022973012    -2.857942120418     4.108250949920
H                    -0.287400318323    -2.895373369871     2.455483425608
H                     0.420877591353    -1.466901495754     3.202987500918
H                     3.327548487206    -2.229441469451     2.351658370031
H                     3.286660308247    -1.744405025464     0.654614741964
H                     1.967875333839     1.732577279793     1.344025520833
H                     2.502795778861     0.708670860798     0.024233866158
H                    -0.570251834635    -3.050514808649    -0.213393969934
H                    -1.369629395039    -2.009268358440     0.972621336626
H                    -3.096690399294    -0.205948615917    -3.509281583538
H                     0.603978266810     2.930491268230     0.053388022021
H                    -0.706841018921     3.952441901173    -1.747712827540
H                    -2.254378543329     2.639426657020    -3.166306122032
H                    -2.403201410416    -3.568061185780    -2.125284868476
H                    -3.965122474128    -2.757657233922    -1.886644631712
H                    -4.103651495066    -3.591851680812    -5.364445246024
H                    -4.985564274674    -3.738154971154    -3.817074555315
H                    -3.493503614658    -4.687388368436    -4.094095189654
H                     2.948600522020    -0.570094044574     4.131013946854
H                     1.452190575677     0.253026818838     3.648803594928
H                     2.955595091139     2.962178563650     5.966599042106
H                     2.915688647034     1.208416092277     6.239840536228
H                     1.486691495742     2.050881118586     5.559109634183
