
  -OEChem-12122420533D

 53 56  0     1  0  0  0  0  0999 V2000
   -3.3128   -4.1685   -2.4131 C   0  0  0  0  0  0  0  0  0  0  0  0
   -2.8935   -2.7350   -2.0637 C   0  0  0  0  0  0  0  0  0  0  0  0
   -1.5594   -2.3884   -2.7207 C   0  0  0  0  0  0  0  0  0  0  0  0
   -1.1093   -0.9773   -2.4036 N   0  3  2  0  0  0  0  0  0  0  0  0
   -1.9199   -0.3854   -2.6084 H   0  0  0  0  0  0  0  0  0  0  0  0
   -0.0070   -0.4827   -3.3071 C   0  0  0  0  0  0  0  0  0  0  0  0
    0.0426    1.0572   -3.2705 C   0  0  1  0  0  0  0  0  0  0  0  0
   -0.6879    1.4416   -3.9902 H   0  0  0  0  0  0  0  0  0  0  0  0
   -0.3054    1.5924   -1.8577 C   0  0  0  0  0  0  0  0  0  0  0  0
    0.0972    0.5665   -0.8026 C   0  0  2  0  0  0  0  0  0  0  0  0
    1.1305    0.2573   -1.0165 H   0  0  0  0  0  0  0  0  0  0  0  0
   -0.7885   -0.7083   -0.9104 C   0  0  2  0  0  0  0  0  0  0  0  0
   -1.7629   -0.4912   -0.4661 H   0  0  0  0  0  0  0  0  0  0  0  0
   -0.1685   -1.9089   -0.1698 C   0  0  0  0  0  0  0  0  0  0  0  0
   -0.0251   -1.4594    1.2633 C   0  0  0  0  0  0  0  0  0  0  0  0
   -0.0484   -2.1112    2.4785 C   0  0  0  0  0  0  0  0  0  0  0  0
    0.0476   -1.1582    3.4948 N   0  0  0  0  0  0  0  0  0  0  0  0
    0.1116    0.1162    2.9470 C   0  0  0  0  0  0  0  0  0  0  0  0
    0.0691   -0.0636    1.5521 C   0  0  0  0  0  0  0  0  0  0  0  0
    0.0854    1.0061    0.6499 C   0  0  0  0  0  0  0  0  0  0  0  0
    0.1453    2.2904    1.1773 C   0  0  0  0  0  0  0  0  0  0  0  0
    0.1937    2.4747    2.5833 C   0  0  0  0  0  0  0  0  0  0  0  0
    0.1819    1.4088    3.4864 C   0  0  0  0  0  0  0  0  0  0  0  0
   -0.1329   -3.5688    2.8120 C   0  0  0  0  0  0  0  0  0  0  0  0
   -0.6950   -4.2627    1.7091 O   0  0  0  0  0  0  0  0  0  0  0  0
   -0.7549   -5.6699    1.9362 C   0  0  0  0  0  0  0  0  0  0  0  0
    1.4425    1.5101   -3.7460 C   0  0  0  0  0  0  0  0  0  0  0  0
    1.5100    2.9688   -3.8868 C   0  0  0  0  0  0  0  0  0  0  0  0
    1.5206    4.1277   -3.9704 N   0  0  0  0  0  0  0  0  0  0  0  0
   -4.2769   -4.4028   -1.9559 H   0  0  0  0  0  0  0  0  0  0  0  0
   -3.4125   -4.3065   -3.4944 H   0  0  0  0  0  0  0  0  0  0  0  0
   -2.5816   -4.8940   -2.0426 H   0  0  0  0  0  0  0  0  0  0  0  0
   -2.8293   -2.6282   -0.9775 H   0  0  0  0  0  0  0  0  0  0  0  0
   -3.6608   -2.0309   -2.4118 H   0  0  0  0  0  0  0  0  0  0  0  0
   -0.7573   -3.0610   -2.4165 H   0  0  0  0  0  0  0  0  0  0  0  0
   -1.6508   -2.4413   -3.8086 H   0  0  0  0  0  0  0  0  0  0  0  0
    0.9184   -0.9443   -2.9579 H   0  0  0  0  0  0  0  0  0  0  0  0
   -0.2090   -0.8507   -4.3144 H   0  0  0  0  0  0  0  0  0  0  0  0
    0.2078    2.5419   -1.6925 H   0  0  0  0  0  0  0  0  0  0  0  0
   -1.3756    1.8197   -1.7772 H   0  0  0  0  0  0  0  0  0  0  0  0
   -0.7920   -2.7999   -0.2146 H   0  0  0  0  0  0  0  0  0  0  0  0
    0.8045   -2.1615   -0.6141 H   0  0  0  0  0  0  0  0  0  0  0  0
    0.0359   -1.3706    4.4836 H   0  0  0  0  0  0  0  0  0  0  0  0
    0.1623    3.1668    0.5355 H   0  0  0  0  0  0  0  0  0  0  0  0
    0.2433    3.4873    2.9724 H   0  0  0  0  0  0  0  0  0  0  0  0
    0.2203    1.5908    4.5567 H   0  0  0  0  0  0  0  0  0  0  0  0
    0.8692   -3.9689    3.0398 H   0  0  0  0  0  0  0  0  0  0  0  0
   -0.7516   -3.7144    3.7129 H   0  0  0  0  0  0  0  0  0  0  0  0
   -1.1949   -6.1187    1.0438 H   0  0  0  0  0  0  0  0  0  0  0  0
   -1.3848   -5.9045    2.8049 H   0  0  0  0  0  0  0  0  0  0  0  0
    0.2476   -6.0896    2.0964 H   0  0  0  0  0  0  0  0  0  0  0  0
    1.6929    1.0556   -4.7109 H   0  0  0  0  0  0  0  0  0  0  0  0
    2.2118    1.1963   -3.0311 H   0  0  0  0  0  0  0  0  0  0  0  0
  1  2  1  0  0  0  0
  1 30  1  0  0  0  0
  1 31  1  0  0  0  0
  1 32  1  0  0  0  0
  2  3  1  0  0  0  0
  2 33  1  0  0  0  0
  2 34  1  0  0  0  0
  3  4  1  0  0  0  0
  3 35  1  0  0  0  0
  3 36  1  0  0  0  0
  4  5  1  0  0  0  0
  4  6  1  0  0  0  0
  4 12  1  0  0  0  0
  6  7  1  0  0  0  0
  6 37  1  0  0  0  0
  6 38  1  0  0  0  0
  7  8  1  0  0  0  0
  7  9  1  0  0  0  0
  7 27  1  0  0  0  0
  9 10  1  0  0  0  0
  9 39  1  0  0  0  0
  9 40  1  0  0  0  0
 10 11  1  0  0  0  0
 10 12  1  0  0  0  0
 10 20  1  0  0  0  0
 12 13  1  0  0  0  0
 12 14  1  0  0  0  0
 14 15  1  0  0  0  0
 14 41  1  0  0  0  0
 14 42  1  0  0  0  0
 15 16  2  0  0  0  0
 15 19  1  0  0  0  0
 16 17  1  0  0  0  0
 16 24  1  0  0  0  0
 17 18  1  0  0  0  0
 17 43  1  0  0  0  0
 18 19  2  0  0  0  0
 18 23  1  0  0  0  0
 19 20  1  0  0  0  0
 20 21  2  0  0  0  0
 21 22  1  0  0  0  0
 21 44  1  0  0  0  0
 22 23  2  0  0  0  0
 22 45  1  0  0  0  0
 23 46  1  0  0  0  0
 24 25  1  0  0  0  0
 24 47  1  0  0  0  0
 24 48  1  0  0  0  0
 25 26  1  0  0  0  0
 26 49  1  0  0  0  0
 26 50  1  0  0  0  0
 26 51  1  0  0  0  0
 27 28  1  0  0  0  0
 27 52  1  0  0  0  0
 27 53  1  0  0  0  0
 28 29  3  0  0  0  0
M  CHG  1   4   1
M  END
$$$$
