43
1 1 C15H24NO3
C                     3.881196259708     4.926686446558     1.238843279172
C                     3.994998321871     3.401543585287     1.185161415630
C                     5.407590513956     3.008738548620     0.712778895235
N                     5.404146485791     1.513166310969     0.484264210391
C                     3.702929083602     2.707312160782     2.517282364844
C                     4.170848798574     3.226387669548     3.728801245362
C                     3.974653902920     2.528557453712     4.924905886955
C                     3.322837063746     1.288793400901     4.943140672163
C                     2.828282520942     0.756223550465     3.723888808647
C                     3.030227075160     1.472034144274     2.540011864861
O                     2.224005851103    -0.452980301467     3.612950833468
C                     1.108000483135    -0.812654198570     4.505278651390
C                     0.067977929854     0.304810333222     4.564416607147
C                    -0.638274315919     0.237663523804     3.194120787496
C                    -0.534686135937    -1.250149261406     2.746490435879
C                     0.375790391228    -1.945854693155     3.791949316605
O                     3.126709945108     0.538467175900     6.055183682888
C                     3.573814040574     1.050324543467     7.316372676305
O                     3.177437555162     2.873207395958     0.122709464020
H                     2.890421980421     5.210967725609     1.603735615004
H                     4.021567828068     5.345271758654     0.238804054154
H                     4.620684972477     5.371802264490     1.908709961411
H                     5.653527839867     3.476476766393    -0.242361347409
H                     6.166704435637     3.234770027069     1.460656823661
H                     4.660361621379     1.300278499036    -0.196717701572
H                     5.146632196580     1.029856355258     1.360378779426
H                     6.301014141462     1.152489194418     0.142179285337
H                     4.689148581175     4.179406123248     3.768262005837
H                     4.349890605449     2.958066401630     5.846518747431
H                     2.604540104354     1.042285066320     1.637971697751
H                     1.521708506466    -1.089091616121     5.474433342818
H                    -0.629498329930     0.065034630333     5.374903692745
H                     0.495364374440     1.285912501956     4.790960678393
H                    -1.672305244356     0.586815605214     3.253073954571
H                    -0.123381783666     0.887784297099     2.478738864271
H                    -1.516420904276    -1.728382169246     2.702662529345
H                    -0.102554527553    -1.323908743334     1.744995841237
H                     1.075881315610    -2.661882926967     3.354385460731
H                    -0.222592816141    -2.484030260662     4.534472596088
H                     3.298573759459     0.295569840770     8.052191550410
H                     3.074968902487     1.995567436570     7.556003628060
H                     4.660809924436     1.186549299284     7.321839256812
H                     2.244677227486     3.082757353841     0.297875666964
