
  -OEChem-12122420533D

 53 56  0     1  0  0  0  0  0999 V2000
   -3.1914   -4.1366   -2.8522 C   0  0  0  0  0  0  0  0  0  0  0  0
   -2.8075   -2.7349   -2.3607 C   0  0  0  0  0  0  0  0  0  0  0  0
   -1.5111   -2.2676   -3.0178 C   0  0  0  0  0  0  0  0  0  0  0  0
   -1.1061   -0.8778   -2.5711 N   0  3  2  0  0  0  0  0  0  0  0  0
   -1.9510   -0.3087   -2.6794 H   0  0  0  0  0  0  0  0  0  0  0  0
   -0.0724   -0.2432   -3.4688 C   0  0  0  0  0  0  0  0  0  0  0  0
   -0.1067    1.2873   -3.2875 C   0  0  1  0  0  0  0  0  0  0  0  0
   -0.9063    1.6830   -3.9230 H   0  0  0  0  0  0  0  0  0  0  0  0
   -0.3859    1.6679   -1.8108 C   0  0  0  0  0  0  0  0  0  0  0  0
    0.1081    0.5613   -0.8825 C   0  0  2  0  0  0  0  0  0  0  0  0
    1.1411    0.3235   -1.1738 H   0  0  0  0  0  0  0  0  0  0  0  0
   -0.7248   -0.7407   -1.0755 C   0  0  2  0  0  0  0  0  0  0  0  0
   -1.6824   -0.6186   -0.5636 H   0  0  0  0  0  0  0  0  0  0  0  0
   -0.0086   -1.9753   -0.4869 C   0  0  0  0  0  0  0  0  0  0  0  0
    0.2208   -1.6540    0.9708 C   0  0  0  0  0  0  0  0  0  0  0  0
    0.3442   -2.4168    2.1160 C   0  0  0  0  0  0  0  0  0  0  0  0
    0.4383   -1.5670    3.2110 N   0  0  0  0  0  0  0  0  0  0  0  0
    0.3914   -0.2466    2.7935 C   0  0  0  0  0  0  0  0  0  0  0  0
    0.2481   -0.2904    1.3927 C   0  0  0  0  0  0  0  0  0  0  0  0
    0.1529    0.8607    0.6038 C   0  0  0  0  0  0  0  0  0  0  0  0
    0.1915    2.0891    1.2527 C   0  0  0  0  0  0  0  0  0  0  0  0
    0.3359    2.1383    2.6636 C   0  0  0  0  0  0  0  0  0  0  0  0
    0.4452    0.9907    3.4523 C   0  0  0  0  0  0  0  0  0  0  0  0
    0.3303   -3.8990    2.3347 C   0  0  0  0  0  0  0  0  0  0  0  0
    1.0297   -4.1725    3.5361 O   0  0  0  0  0  0  0  0  0  0  0  0
    0.9987   -5.5535    3.8932 C   0  0  0  0  0  0  0  0  0  0  0  0
    1.2224    1.8996   -3.7846 C   0  0  0  0  0  0  0  0  0  0  0  0
    1.5606    1.4224   -5.1319 C   0  0  0  0  0  0  0  0  0  0  0  0
    1.7668    0.9753   -6.1848 N   0  0  0  0  0  0  0  0  0  0  0  0
   -4.1285   -4.4568   -2.3908 H   0  0  0  0  0  0  0  0  0  0  0  0
   -3.3288   -4.1565   -3.9377 H   0  0  0  0  0  0  0  0  0  0  0  0
   -2.4224   -4.8718   -2.5941 H   0  0  0  0  0  0  0  0  0  0  0  0
   -2.7105   -2.7403   -1.2712 H   0  0  0  0  0  0  0  0  0  0  0  0
   -3.6107   -2.0273   -2.6052 H   0  0  0  0  0  0  0  0  0  0  0  0
   -0.6720   -2.9329   -2.8140 H   0  0  0  0  0  0  0  0  0  0  0  0
   -1.6382   -2.2123   -4.1016 H   0  0  0  0  0  0  0  0  0  0  0  0
    0.8923   -0.6799   -3.2055 H   0  0  0  0  0  0  0  0  0  0  0  0
   -0.2965   -0.5252   -4.4975 H   0  0  0  0  0  0  0  0  0  0  0  0
    0.1154    2.6093   -1.5738 H   0  0  0  0  0  0  0  0  0  0  0  0
   -1.4549    1.8513   -1.6471 H   0  0  0  0  0  0  0  0  0  0  0  0
   -0.6168   -2.8761   -0.5956 H   0  0  0  0  0  0  0  0  0  0  0  0
    0.9355   -2.1504   -1.0218 H   0  0  0  0  0  0  0  0  0  0  0  0
    0.6535   -1.9104    4.1391 H   0  0  0  0  0  0  0  0  0  0  0  0
    0.1217    3.0238    0.7032 H   0  0  0  0  0  0  0  0  0  0  0  0
    0.3672    3.1094    3.1486 H   0  0  0  0  0  0  0  0  0  0  0  0
    0.5611    1.0688    4.5295 H   0  0  0  0  0  0  0  0  0  0  0  0
   -0.7084   -4.2644    2.4130 H   0  0  0  0  0  0  0  0  0  0  0  0
    0.7962   -4.4109    1.4786 H   0  0  0  0  0  0  0  0  0  0  0  0
    1.5562   -5.6512    4.8255 H   0  0  0  0  0  0  0  0  0  0  0  0
    1.4753   -6.1709    3.1199 H   0  0  0  0  0  0  0  0  0  0  0  0
   -0.0328   -5.8994    4.0467 H   0  0  0  0  0  0  0  0  0  0  0  0
    2.0437    1.6427   -3.1059 H   0  0  0  0  0  0  0  0  0  0  0  0
    1.1439    2.9904   -3.7997 H   0  0  0  0  0  0  0  0  0  0  0  0
  1  2  1  0  0  0  0
  1 30  1  0  0  0  0
  1 31  1  0  0  0  0
  1 32  1  0  0  0  0
  2  3  1  0  0  0  0
  2 33  1  0  0  0  0
  2 34  1  0  0  0  0
  3  4  1  0  0  0  0
  3 35  1  0  0  0  0
  3 36  1  0  0  0  0
  4  5  1  0  0  0  0
  4  6  1  0  0  0  0
  4 12  1  0  0  0  0
  6  7  1  0  0  0  0
  6 37  1  0  0  0  0
  6 38  1  0  0  0  0
  7  8  1  0  0  0  0
  7  9  1  0  0  0  0
  7 27  1  0  0  0  0
  9 10  1  0  0  0  0
  9 39  1  0  0  0  0
  9 40  1  0  0  0  0
 10 11  1  0  0  0  0
 10 12  1  0  0  0  0
 10 20  1  0  0  0  0
 12 13  1  0  0  0  0
 12 14  1  0  0  0  0
 14 15  1  0  0  0  0
 14 41  1  0  0  0  0
 14 42  1  0  0  0  0
 15 16  2  0  0  0  0
 15 19  1  0  0  0  0
 16 17  1  0  0  0  0
 16 24  1  0  0  0  0
 17 18  1  0  0  0  0
 17 43  1  0  0  0  0
 18 19  2  0  0  0  0
 18 23  1  0  0  0  0
 19 20  1  0  0  0  0
 20 21  2  0  0  0  0
 21 22  1  0  0  0  0
 21 44  1  0  0  0  0
 22 23  2  0  0  0  0
 22 45  1  0  0  0  0
 23 46  1  0  0  0  0
 24 25  1  0  0  0  0
 24 47  1  0  0  0  0
 24 48  1  0  0  0  0
 25 26  1  0  0  0  0
 26 49  1  0  0  0  0
 26 50  1  0  0  0  0
 26 51  1  0  0  0  0
 27 28  1  0  0  0  0
 27 52  1  0  0  0  0
 27 53  1  0  0  0  0
 28 29  3  0  0  0  0
M  CHG  1   4   1
M  END
$$$$
