
  -OEChem-12102412493D

 56 59  0     1  0  0  0  0  0999 V2000
    1.5906   -5.2761   -3.0995 C   0  0  0  0  0  0  0  0  0  0  0  0
    0.7815   -4.0001   -3.3693 C   0  0  0  0  0  0  0  0  0  0  0  0
    0.6922   -3.1523   -2.1006 C   0  0  0  0  0  0  0  0  0  0  0  0
   -0.2441   -1.9663   -2.2374 N   0  3  2  0  0  0  0  0  0  0  0  0
   -1.1648   -2.3604   -2.4503 H   0  0  0  0  0  0  0  0  0  0  0  0
    0.1473   -1.1122   -3.4389 C   0  0  0  0  0  0  0  0  0  0  0  0
   -0.4037    0.3016   -3.3262 C   0  0  1  0  0  0  0  0  0  0  0  0
   -1.4897    0.2405   -3.1780 H   0  0  0  0  0  0  0  0  0  0  0  0
    0.2455    1.0069   -2.1210 C   0  0  0  0  0  0  0  0  0  0  0  0
    0.5493    0.0522   -0.9357 C   0  0  2  0  0  0  0  0  0  0  0  0
    1.5575   -0.3693   -1.0581 H   0  0  0  0  0  0  0  0  0  0  0  0
   -0.4558   -1.1268   -0.9426 C   0  0  2  0  0  0  0  0  0  0  0  0
   -1.4590   -0.7085   -1.0594 H   0  0  0  0  0  0  0  0  0  0  0  0
   -0.4845   -2.0370    0.3059 C   0  0  0  0  0  0  0  0  0  0  0  0
   -0.6913   -1.1552    1.4999 C   0  0  0  0  0  0  0  0  0  0  0  0
   -1.2214   -1.3253    2.7612 C   0  0  0  0  0  0  0  0  0  0  0  0
   -0.9868   -0.1693    3.4999 N   0  0  0  0  0  0  0  0  0  0  0  0
   -0.3297    0.7681    2.7175 C   0  0  0  0  0  0  0  0  0  0  0  0
   -0.1295    0.1539    1.4617 C   0  0  0  0  0  0  0  0  0  0  0  0
    0.4913    0.7993    0.3917 C   0  0  0  0  0  0  0  0  0  0  0  0
    0.9471    2.0975    0.6146 C   0  0  0  0  0  0  0  0  0  0  0  0
    0.7659    2.7120    1.8767 C   0  0  0  0  0  0  0  0  0  0  0  0
    0.1215    2.0745    2.9410 C   0  0  0  0  0  0  0  0  0  0  0  0
   -1.8808   -2.4963    3.4159 C   0  0  0  0  0  0  0  0  0  0  0  0
   -2.8528   -2.0059    4.3261 O   0  0  0  0  0  0  0  0  0  0  0  0
   -3.4594   -3.0424    5.0950 C   0  0  0  0  0  0  0  0  0  0  0  0
   -0.1716    1.0450   -4.6482 C   0  0  0  0  0  0  0  0  0  0  0  0
   -0.9011    2.7224   -4.5522 S   0  0  0  0  0  0  0  0  0  0  0  0
   -0.5442    3.2810   -6.2517 C   0  0  0  0  0  0  0  0  0  0  0  0
    1.6634   -5.8775   -4.0087 H   0  0  0  0  0  0  0  0  0  0  0  0
    2.6087   -5.0396   -2.7741 H   0  0  0  0  0  0  0  0  0  0  0  0
    1.1211   -5.8926   -2.3264 H   0  0  0  0  0  0  0  0  0  0  0  0
   -0.2294   -4.2709   -3.7023 H   0  0  0  0  0  0  0  0  0  0  0  0
    1.2498   -3.4404   -4.1831 H   0  0  0  0  0  0  0  0  0  0  0  0
    0.3131   -3.7645   -1.2846 H   0  0  0  0  0  0  0  0  0  0  0  0
    1.6660   -2.7525   -1.8089 H   0  0  0  0  0  0  0  0  0  0  0  0
    1.2389   -1.0990   -3.4720 H   0  0  0  0  0  0  0  0  0  0  0  0
   -0.2170   -1.6307   -4.3265 H   0  0  0  0  0  0  0  0  0  0  0  0
    1.1737    1.4890   -2.4424 H   0  0  0  0  0  0  0  0  0  0  0  0
   -0.4131    1.8057   -1.7761 H   0  0  0  0  0  0  0  0  0  0  0  0
   -1.2718   -2.7944    0.2003 H   0  0  0  0  0  0  0  0  0  0  0  0
    0.4701   -2.5640    0.4107 H   0  0  0  0  0  0  0  0  0  0  0  0
   -1.4208   -0.0094    4.4005 H   0  0  0  0  0  0  0  0  0  0  0  0
    1.4342    2.6635   -0.1747 H   0  0  0  0  0  0  0  0  0  0  0  0
    1.1337    3.7239    2.0191 H   0  0  0  0  0  0  0  0  0  0  0  0
   -0.0152    2.5814    3.8920 H   0  0  0  0  0  0  0  0  0  0  0  0
   -2.3399   -3.1437    2.6524 H   0  0  0  0  0  0  0  0  0  0  0  0
   -1.1348   -3.1034    3.9565 H   0  0  0  0  0  0  0  0  0  0  0  0
   -4.1773   -2.5629    5.7619 H   0  0  0  0  0  0  0  0  0  0  0  0
   -2.7118   -3.5832    5.6918 H   0  0  0  0  0  0  0  0  0  0  0  0
   -3.9876   -3.7566    4.4484 H   0  0  0  0  0  0  0  0  0  0  0  0
   -0.6411    0.5006   -5.4759 H   0  0  0  0  0  0  0  0  0  0  0  0
    0.9033    1.1225   -4.8535 H   0  0  0  0  0  0  0  0  0  0  0  0
   -0.9372    4.2961   -6.3383 H   0  0  0  0  0  0  0  0  0  0  0  0
   -1.0428    2.6459   -6.9885 H   0  0  0  0  0  0  0  0  0  0  0  0
    0.5321    3.3028   -6.4405 H   0  0  0  0  0  0  0  0  0  0  0  0
  1  2  1  0  0  0  0
  1 30  1  0  0  0  0
  1 31  1  0  0  0  0
  1 32  1  0  0  0  0
  2  3  1  0  0  0  0
  2 33  1  0  0  0  0
  2 34  1  0  0  0  0
  3  4  1  0  0  0  0
  3 35  1  0  0  0  0
  3 36  1  0  0  0  0
  4  5  1  0  0  0  0
  4  6  1  0  0  0  0
  4 12  1  0  0  0  0
  6  7  1  0  0  0  0
  6 37  1  0  0  0  0
  6 38  1  0  0  0  0
  7  8  1  0  0  0  0
  7  9  1  0  0  0  0
  7 27  1  0  0  0  0
  9 10  1  0  0  0  0
  9 39  1  0  0  0  0
  9 40  1  0  0  0  0
 10 11  1  0  0  0  0
 10 12  1  0  0  0  0
 10 20  1  0  0  0  0
 12 13  1  0  0  0  0
 12 14  1  0  0  0  0
 14 15  1  0  0  0  0
 14 41  1  0  0  0  0
 14 42  1  0  0  0  0
 15 16  2  0  0  0  0
 15 19  1  0  0  0  0
 16 17  1  0  0  0  0
 16 24  1  0  0  0  0
 17 18  1  0  0  0  0
 17 43  1  0  0  0  0
 18 19  2  0  0  0  0
 18 23  1  0  0  0  0
 19 20  1  0  0  0  0
 20 21  2  0  0  0  0
 21 22  1  0  0  0  0
 21 44  1  0  0  0  0
 22 23  2  0  0  0  0
 22 45  1  0  0  0  0
 23 46  1  0  0  0  0
 24 25  1  0  0  0  0
 24 47  1  0  0  0  0
 24 48  1  0  0  0  0
 25 26  1  0  0  0  0
 26 49  1  0  0  0  0
 26 50  1  0  0  0  0
 26 51  1  0  0  0  0
 27 28  1  0  0  0  0
 27 52  1  0  0  0  0
 27 53  1  0  0  0  0
 28 29  1  0  0  0  0
 29 54  1  0  0  0  0
 29 55  1  0  0  0  0
 29 56  1  0  0  0  0
M  CHG  1   4   1
M  END
$$$$
