43
1 1 C15H24NO3
C                     4.417545599618     4.623458003939     1.298194138797
C                     4.106865659234     3.121283317481     1.247687338518
C                     5.249251156750     2.327058890047     0.587998850749
N                     5.292743633725     2.673261951531    -0.896968098798
C                     3.836563141256     2.499786083476     2.611557306382
C                     4.343480449058     3.053972108578     3.789254169445
C                     4.110606545230     2.413202034181     5.010597828141
C                     3.387121019163     1.225211584265     5.080568734622
C                     2.877782625079     0.648241024716     3.886142569057
C                     3.110767428574     1.294342929935     2.667493988727
O                     2.193399050879    -0.511852102254     4.030546192589
C                     1.758246369799    -1.253713455132     2.863067963718
C                     2.939859953862    -1.979742397377     2.204379716130
C                     3.185398243114    -3.233085359668     3.086065013038
C                     1.895571216243    -3.423097555172     3.935691923716
C                     0.886966559556    -2.392555825466     3.388034707119
O                     3.259196672485     0.616333623327     6.293742585116
C                     1.922080565574     0.437177339547     6.805971392751
O                     3.017462511198     2.887138023071     0.321364880243
H                     3.621508502107     5.154043069411     1.826130397157
H                     4.469970931874     5.046946534482     0.289000507874
H                     5.358387235900     4.833581621669     1.812151122783
H                     6.222273996001     2.547562043592     1.026081294997
H                     5.047119416677     1.257653412303     0.644322282259
H                     5.683525975172     3.606675299760    -1.063944495932
H                     4.311336018613     2.679834189609    -1.224893733974
H                     5.835551666159     1.997832542578    -1.446307003528
H                     4.909450885510     3.978989975692     3.784980798880
H                     4.494143058927     2.826377027891     5.938538764331
H                     2.729707035590     0.864419974934     1.749258802886
H                     1.213183751399    -0.578790061303     2.194015251282
H                     2.640921624974    -2.267436631307     1.189707026702
H                     3.825588196410    -1.344073046238     2.117353660987
H                     3.397440191734    -4.107561543141     2.465518567603
H                     4.052304149706    -3.084093812053     3.734250685818
H                     1.504786302995    -4.441826181541     3.877224594238
H                     2.104106143443    -3.216084605132     4.988307603419
H                     0.164408649388    -2.044257365106     4.130497035971
H                     0.324882977342    -2.806718581358     2.543536174500
H                     2.047294487746     0.039383987445     7.813389163164
H                     1.353612084598    -0.264233797307     6.192940750695
H                     1.405441092347     1.402409330272     6.854556290194
H                     2.185244228975     3.192653294423     0.720694470830
