
  -OEChem-12102412493D

 56 59  0     1  0  0  0  0  0999 V2000
   -2.7900   -3.7447   -4.6064 C   0  0  0  0  0  0  0  0  0  0  0  0
   -2.3249   -2.3183   -4.2845 C   0  0  0  0  0  0  0  0  0  0  0  0
   -1.4951   -2.2994   -3.0019 C   0  0  0  0  0  0  0  0  0  0  0  0
   -1.0988   -0.9004   -2.5839 N   0  3  2  0  0  0  0  0  0  0  0  0
   -1.9469   -0.3373   -2.6953 H   0  0  0  0  0  0  0  0  0  0  0  0
   -0.0683   -0.2555   -3.4822 C   0  0  0  0  0  0  0  0  0  0  0  0
   -0.1409    1.2756   -3.3185 C   0  0  1  0  0  0  0  0  0  0  0  0
   -0.9474    1.6448   -3.9632 H   0  0  0  0  0  0  0  0  0  0  0  0
   -0.4537    1.6556   -1.8446 C   0  0  0  0  0  0  0  0  0  0  0  0
    0.0691    0.5742   -0.9026 C   0  0  2  0  0  0  0  0  0  0  0  0
    1.1100    0.3685   -1.1890 H   0  0  0  0  0  0  0  0  0  0  0  0
   -0.7199   -0.7535   -1.0931 C   0  0  2  0  0  0  0  0  0  0  0  0
   -1.6837   -0.6669   -0.5822 H   0  0  0  0  0  0  0  0  0  0  0  0
    0.0339   -1.9652   -0.5035 C   0  0  0  0  0  0  0  0  0  0  0  0
    0.2550   -1.6337    0.9538 C   0  0  0  0  0  0  0  0  0  0  0  0
    0.4061   -2.3894    2.1001 C   0  0  0  0  0  0  0  0  0  0  0  0
    0.4708   -1.5348    3.1944 N   0  0  0  0  0  0  0  0  0  0  0  0
    0.3780   -0.2175    2.7742 C   0  0  0  0  0  0  0  0  0  0  0  0
    0.2354   -0.2686    1.3737 C   0  0  0  0  0  0  0  0  0  0  0  0
    0.1011    0.8778    0.5827 C   0  0  0  0  0  0  0  0  0  0  0  0
    0.0970    2.1073    1.2300 C   0  0  0  0  0  0  0  0  0  0  0  0
    0.2394    2.1638    2.6410 C   0  0  0  0  0  0  0  0  0  0  0  0
    0.3891    1.0219    3.4314 C   0  0  0  0  0  0  0  0  0  0  0  0
    0.4411   -3.8702    2.3222 C   0  0  0  0  0  0  0  0  0  0  0  0
    1.1834   -4.1215    3.5038 O   0  0  0  0  0  0  0  0  0  0  0  0
    1.1996   -5.5015    3.8632 C   0  0  0  0  0  0  0  0  0  0  0  0
    1.1680    1.9187   -3.7939 C   0  0  0  0  0  0  0  0  0  0  0  0
    1.5403    1.4262   -5.5199 S   0  0  0  0  0  0  0  0  0  0  0  0
    3.1319    2.2918   -5.7344 C   0  0  0  0  0  0  0  0  0  0  0  0
   -3.3854   -3.7510   -5.5223 H   0  0  0  0  0  0  0  0  0  0  0  0
   -1.9382   -4.4152   -4.7578 H   0  0  0  0  0  0  0  0  0  0  0  0
   -3.4085   -4.1550   -3.8018 H   0  0  0  0  0  0  0  0  0  0  0  0
   -3.2002   -1.6668   -4.1611 H   0  0  0  0  0  0  0  0  0  0  0  0
   -1.7494   -1.9268   -5.1283 H   0  0  0  0  0  0  0  0  0  0  0  0
   -2.0786   -2.7153   -2.1781 H   0  0  0  0  0  0  0  0  0  0  0  0
   -0.5752   -2.8786   -3.1004 H   0  0  0  0  0  0  0  0  0  0  0  0
    0.9026   -0.6644   -3.1994 H   0  0  0  0  0  0  0  0  0  0  0  0
   -0.2720   -0.5588   -4.5063 H   0  0  0  0  0  0  0  0  0  0  0  0
    0.0142    2.6149   -1.6116 H   0  0  0  0  0  0  0  0  0  0  0  0
   -1.5303    1.8047   -1.6914 H   0  0  0  0  0  0  0  0  0  0  0  0
   -0.5471   -2.8843   -0.6121 H   0  0  0  0  0  0  0  0  0  0  0  0
    0.9824   -2.1118   -1.0388 H   0  0  0  0  0  0  0  0  0  0  0  0
    0.7046   -1.8673    4.1218 H   0  0  0  0  0  0  0  0  0  0  0  0
   -0.0047    3.0373    0.6776 H   0  0  0  0  0  0  0  0  0  0  0  0
    0.2367    3.1361    3.1247 H   0  0  0  0  0  0  0  0  0  0  0  0
    0.5024    1.1053    4.5086 H   0  0  0  0  0  0  0  0  0  0  0  0
   -0.5836   -4.2654    2.4326 H   0  0  0  0  0  0  0  0  0  0  0  0
    0.8960   -4.3710    1.4538 H   0  0  0  0  0  0  0  0  0  0  0  0
    1.7857   -5.5827    4.7796 H   0  0  0  0  0  0  0  0  0  0  0  0
    1.6704   -6.1081    3.0776 H   0  0  0  0  0  0  0  0  0  0  0  0
    0.1826   -5.8752    4.0464 H   0  0  0  0  0  0  0  0  0  0  0  0
    1.9962    1.6169   -3.1411 H   0  0  0  0  0  0  0  0  0  0  0  0
    1.0719    3.0073   -3.7393 H   0  0  0  0  0  0  0  0  0  0  0  0
    3.4756    2.0770   -6.7482 H   0  0  0  0  0  0  0  0  0  0  0  0
    3.8758    1.9265   -5.0220 H   0  0  0  0  0  0  0  0  0  0  0  0
    3.0042    3.3715   -5.6254 H   0  0  0  0  0  0  0  0  0  0  0  0
  1  2  1  0  0  0  0
  1 30  1  0  0  0  0
  1 31  1  0  0  0  0
  1 32  1  0  0  0  0
  2  3  1  0  0  0  0
  2 33  1  0  0  0  0
  2 34  1  0  0  0  0
  3  4  1  0  0  0  0
  3 35  1  0  0  0  0
  3 36  1  0  0  0  0
  4  5  1  0  0  0  0
  4  6  1  0  0  0  0
  4 12  1  0  0  0  0
  6  7  1  0  0  0  0
  6 37  1  0  0  0  0
  6 38  1  0  0  0  0
  7  8  1  0  0  0  0
  7  9  1  0  0  0  0
  7 27  1  0  0  0  0
  9 10  1  0  0  0  0
  9 39  1  0  0  0  0
  9 40  1  0  0  0  0
 10 11  1  0  0  0  0
 10 12  1  0  0  0  0
 10 20  1  0  0  0  0
 12 13  1  0  0  0  0
 12 14  1  0  0  0  0
 14 15  1  0  0  0  0
 14 41  1  0  0  0  0
 14 42  1  0  0  0  0
 15 16  2  0  0  0  0
 15 19  1  0  0  0  0
 16 17  1  0  0  0  0
 16 24  1  0  0  0  0
 17 18  1  0  0  0  0
 17 43  1  0  0  0  0
 18 19  2  0  0  0  0
 18 23  1  0  0  0  0
 19 20  1  0  0  0  0
 20 21  2  0  0  0  0
 21 22  1  0  0  0  0
 21 44  1  0  0  0  0
 22 23  2  0  0  0  0
 22 45  1  0  0  0  0
 23 46  1  0  0  0  0
 24 25  1  0  0  0  0
 24 47  1  0  0  0  0
 24 48  1  0  0  0  0
 25 26  1  0  0  0  0
 26 49  1  0  0  0  0
 26 50  1  0  0  0  0
 26 51  1  0  0  0  0
 27 28  1  0  0  0  0
 27 52  1  0  0  0  0
 27 53  1  0  0  0  0
 28 29  1  0  0  0  0
 29 54  1  0  0  0  0
 29 55  1  0  0  0  0
 29 56  1  0  0  0  0
M  CHG  1   4   1
M  END
$$$$
