53
1 1 C21H28N3O
C                     1.572879821027    -5.253186346035    -3.127575991240
C                     0.759295191335    -3.977268652186    -3.385113087988
C                     0.680546192739    -3.134749628635    -2.112226081985
N                    -0.257969206983    -1.946962075845    -2.237040168440
H                    -1.179412429121    -2.342454427849    -2.444961890380
C                     0.125488655105    -1.090512488682    -3.436389407183
C                    -0.416471704231     0.324439473922    -3.303656183770
H                    -1.500445520545     0.273708244296    -3.146490086525
C                     0.249123697692     1.023598474901    -2.106130082229
C                     0.540368477867     0.065414087436    -0.920259357466
H                     1.548989756011    -0.356643341551    -1.036008976976
C                    -0.464659898686    -1.113744177871    -0.934547983546
H                    -1.469388358764    -0.697064909171    -1.043920573158
C                    -0.486199908877    -2.032908080301     0.307650691901
C                    -0.695282529198    -1.159221487436     1.507189323167
C                    -1.222975477169    -1.339273144349     2.768534577323
N                    -0.997297250967    -0.185065155891     3.511339204453
C                    -0.348164403898     0.761174664742     2.733286575455
C                    -0.143513457504     0.153989917417     1.474821865695
C                     0.472171637985     0.809953886640     0.408421590622
C                     0.916681675013     2.111118635794     0.635992112195
C                     0.729450480379     2.718835359677     1.900492199170
C                     0.091215138362     2.070717241660     2.961897893349
C                    -1.873078771741    -2.518351175807     3.419052932040
O                    -2.827932607803    -2.037720502524     4.351060055334
C                    -3.425908338136    -3.082445536169     5.116473762915
C                    -0.190430896389     1.087367032883    -4.627243160901
C                    -0.682875805449     2.466601925647    -4.528965792822
N                    -1.083469891439     3.550190707330    -4.406155615795
H                     1.636085429708    -5.851409741886    -4.039503956242
H                     2.594178142514    -5.016443966293    -2.812865826635
H                     1.112245791432    -5.872524023719    -2.351618210773
H                    -0.254228522074    -4.248588629770    -3.709745182415
H                     1.220015386855    -3.414640229116    -4.201441337472
H                     0.305634214514    -3.748996304046    -1.296018024520
H                     1.656137922759    -2.735960158643    -1.825208887962
H                     1.216828676400    -1.080572799672    -3.480716798793
H                    -0.248503491418    -1.601796789081    -4.324590558338
H                     1.187643352000     1.485179991000    -2.429380172160
H                    -0.395675950037     1.836442372918    -1.767187168030
H                    -1.270821897230    -2.792565842694     0.198107992982
H                     0.471105621077    -2.556295409648     0.405696195693
H                    -1.427559392685    -0.035422974313     4.415671952452
H                     1.400265479930     2.685290112487    -0.149609409634
H                     1.087230182364     3.733701410457     2.046545897789
H                    -0.050330356721     2.572473055492     3.914829710156
H                    -2.345953659780    -3.155541678589     2.655185321516
H                    -1.118285132184    -3.133054520567     3.938463240644
H                    -4.129823107626    -2.608928978428     5.802078842162
H                    -2.670208778945    -3.634185868249     5.692525707869
H                    -3.968459349200    -3.785076595831     4.469166021586
H                    -0.707000348887     0.594306336178    -5.457972015654
H                     0.876500836648     1.118290228161    -4.876374674540
