
  -OEChem-12102412493D

 53 56  0     1  0  0  0  0  0999 V2000
   -0.8443   -4.4290   -3.8643 C   0  0  0  0  0  0  0  0  0  0  0  0
    0.5568   -3.8986   -3.5341 C   0  0  0  0  0  0  0  0  0  0  0  0
    0.6261   -3.0986   -2.2320 C   0  0  0  0  0  0  0  0  0  0  0  0
   -0.3140   -1.9045   -2.2201 N   0  3  2  0  0  0  0  0  0  0  0  0
   -1.2510   -2.2919   -2.3650 H   0  0  0  0  0  0  0  0  0  0  0  0
   -0.0338   -1.0052   -3.4118 C   0  0  0  0  0  0  0  0  0  0  0  0
   -0.5966    0.3911   -3.1880 C   0  0  1  0  0  0  0  0  0  0  0  0
   -1.6598    0.2990   -2.9372 H   0  0  0  0  0  0  0  0  0  0  0  0
    0.1543    1.0721   -2.0327 C   0  0  0  0  0  0  0  0  0  0  0  0
    0.5840    0.0750   -0.9216 C   0  0  2  0  0  0  0  0  0  0  0  0
    1.5790   -0.3242   -1.1634 H   0  0  0  0  0  0  0  0  0  0  0  0
   -0.4021   -1.1210   -0.8771 C   0  0  2  0  0  0  0  0  0  0  0  0
   -1.4178   -0.7166   -0.8724 H   0  0  0  0  0  0  0  0  0  0  0  0
   -0.2913   -2.0772    0.3315 C   0  0  0  0  0  0  0  0  0  0  0  0
   -0.3898   -1.2452    1.5758 C   0  0  0  0  0  0  0  0  0  0  0  0
   -0.7804   -1.4721    2.8791 C   0  0  0  0  0  0  0  0  0  0  0  0
   -0.5210   -0.3274    3.6253 N   0  0  0  0  0  0  0  0  0  0  0  0
    0.0749    0.6353    2.8265 C   0  0  0  0  0  0  0  0  0  0  0  0
    0.1400    0.0764    1.5305 C   0  0  0  0  0  0  0  0  0  0  0  0
    0.6529    0.7686    0.4332 C   0  0  0  0  0  0  0  0  0  0  0  0
    1.1463    2.0513    0.6663 C   0  0  0  0  0  0  0  0  0  0  0  0
    1.1084    2.6060    1.9679 C   0  0  0  0  0  0  0  0  0  0  0  0
    0.5709    1.9229    3.0629 C   0  0  0  0  0  0  0  0  0  0  0  0
   -1.4283   -2.6486    3.5400 C   0  0  0  0  0  0  0  0  0  0  0  0
   -1.0134   -2.6770    4.8956 O   0  0  0  0  0  0  0  0  0  0  0  0
   -1.6604   -3.7008    5.6496 C   0  0  0  0  0  0  0  0  0  0  0  0
   -0.5190    1.2211   -4.4884 C   0  0  0  0  0  0  0  0  0  0  0  0
   -1.2702    0.5729   -5.5709 C   0  0  0  0  0  0  0  0  0  0  0  0
   -1.8611   -0.0311   -6.3692 N   0  0  0  0  0  0  0  0  0  0  0  0
   -0.8035   -5.0953   -4.7291 H   0  0  0  0  0  0  0  0  0  0  0  0
   -1.2647   -5.0002   -3.0291 H   0  0  0  0  0  0  0  0  0  0  0  0
   -1.5515   -3.6323   -4.1275 H   0  0  0  0  0  0  0  0  0  0  0  0
    0.9609   -3.3254   -4.3731 H   0  0  0  0  0  0  0  0  0  0  0  0
    1.2409   -4.7419   -3.3933 H   0  0  0  0  0  0  0  0  0  0  0  0
    0.3333   -3.7369   -1.4006 H   0  0  0  0  0  0  0  0  0  0  0  0
    1.6284   -2.7105   -2.0397 H   0  0  0  0  0  0  0  0  0  0  0  0
    1.0507   -0.9685   -3.5369 H   0  0  0  0  0  0  0  0  0  0  0  0
   -0.4665   -1.4877   -4.2878 H   0  0  0  0  0  0  0  0  0  0  0  0
    1.0456    1.5774   -2.4183 H   0  0  0  0  0  0  0  0  0  0  0  0
   -0.4818    1.8458   -1.5959 H   0  0  0  0  0  0  0  0  0  0  0  0
   -1.0726   -2.8443    0.2695 H   0  0  0  0  0  0  0  0  0  0  0  0
    0.6779   -2.5877    0.3207 H   0  0  0  0  0  0  0  0  0  0  0  0
   -0.6068   -0.3146    4.6342 H   0  0  0  0  0  0  0  0  0  0  0  0
    1.5633    2.6475   -0.1410 H   0  0  0  0  0  0  0  0  0  0  0  0
    1.5054    3.6055    2.1187 H   0  0  0  0  0  0  0  0  0  0  0  0
    0.5445    2.3834    4.0463 H   0  0  0  0  0  0  0  0  0  0  0  0
   -2.5268   -2.5603    3.4860 H   0  0  0  0  0  0  0  0  0  0  0  0
   -1.1465   -3.5760    3.0178 H   0  0  0  0  0  0  0  0  0  0  0  0
   -1.2796   -3.6307    6.6693 H   0  0  0  0  0  0  0  0  0  0  0  0
   -1.4287   -4.6951    5.2442 H   0  0  0  0  0  0  0  0  0  0  0  0
   -2.7500   -3.5593    5.6561 H   0  0  0  0  0  0  0  0  0  0  0  0
    0.5210    1.3501   -4.8078 H   0  0  0  0  0  0  0  0  0  0  0  0
   -0.9275    2.2207   -4.3116 H   0  0  0  0  0  0  0  0  0  0  0  0
  1  2  1  0  0  0  0
  1 30  1  0  0  0  0
  1 31  1  0  0  0  0
  1 32  1  0  0  0  0
  2  3  1  0  0  0  0
  2 33  1  0  0  0  0
  2 34  1  0  0  0  0
  3  4  1  0  0  0  0
  3 35  1  0  0  0  0
  3 36  1  0  0  0  0
  4  5  1  0  0  0  0
  4  6  1  0  0  0  0
  4 12  1  0  0  0  0
  6  7  1  0  0  0  0
  6 37  1  0  0  0  0
  6 38  1  0  0  0  0
  7  8  1  0  0  0  0
  7  9  1  0  0  0  0
  7 27  1  0  0  0  0
  9 10  1  0  0  0  0
  9 39  1  0  0  0  0
  9 40  1  0  0  0  0
 10 11  1  0  0  0  0
 10 12  1  0  0  0  0
 10 20  1  0  0  0  0
 12 13  1  0  0  0  0
 12 14  1  0  0  0  0
 14 15  1  0  0  0  0
 14 41  1  0  0  0  0
 14 42  1  0  0  0  0
 15 16  2  0  0  0  0
 15 19  1  0  0  0  0
 16 17  1  0  0  0  0
 16 24  1  0  0  0  0
 17 18  1  0  0  0  0
 17 43  1  0  0  0  0
 18 19  2  0  0  0  0
 18 23  1  0  0  0  0
 19 20  1  0  0  0  0
 20 21  2  0  0  0  0
 21 22  1  0  0  0  0
 21 44  1  0  0  0  0
 22 23  2  0  0  0  0
 22 45  1  0  0  0  0
 23 46  1  0  0  0  0
 24 25  1  0  0  0  0
 24 47  1  0  0  0  0
 24 48  1  0  0  0  0
 25 26  1  0  0  0  0
 26 49  1  0  0  0  0
 26 50  1  0  0  0  0
 26 51  1  0  0  0  0
 27 28  1  0  0  0  0
 27 52  1  0  0  0  0
 27 53  1  0  0  0  0
 28 29  3  0  0  0  0
M  CHG  1   4   1
M  END
$$$$
