53
1 1 C21H28N3O
C                     0.397146475296    -3.807341483548     4.712068526778
C                     1.078619506044    -3.622034562464     3.350718479624
C                     0.606101024148    -2.329864942166     2.688419565967
N                     1.290913126054    -2.095381805150     1.348004420155
H                     1.339488672935    -3.025466374719     0.918978669239
C                     2.730466680059    -1.627787846376     1.474584365671
C                     2.884771965927    -0.139096372992     1.804250723990
H                     3.939823099073     0.063853845472     1.593091813381
C                     2.028220882574     0.724794953908     0.865635664323
C                     0.565043291520     0.255369391098     0.760126814489
H                     0.074937456858     0.338219671830     1.740720099958
C                     0.532451621664    -1.232517664133     0.328176078875
H                     1.137071515842    -1.321219385373    -0.581221773464
C                    -0.849123165724    -1.845624867548     0.014786248453
C                    -1.496715228676    -0.965481571864    -1.010465677685
C                    -2.465752659725    -1.159387241614    -1.970659393354
N                    -2.734007732866     0.069734999281    -2.575332485717
C                    -1.939785162843     1.059905169864    -2.014014014374
C                    -1.159930733068     0.417988151489    -1.026888575999
C                    -0.220617921499     1.095537285594    -0.243764497826
C                    -0.087154777500     2.465008276727    -0.462492648128
C                    -0.876051745117     3.115104533242    -1.442777243363
C                    -1.804706837703     2.435958580445    -2.235366814848
C                    -3.174047952873    -2.427385655627    -2.363095641131
O                    -3.418141080330    -3.265349812796    -1.242571560168
C                    -4.461310359435    -2.780296842606    -0.398157219644
C                     2.659819511561     0.274033450151     3.287431658117
C                     3.119120713099    -0.740766786860     4.239912954613
N                     3.443703260663    -1.621012039116     4.926386429539
H                     0.711412818974    -4.750866032412     5.163950589737
H                     0.674982725177    -3.002557991638     5.398747153124
H                    -0.693542874993    -3.826340390065     4.617594212434
H                     0.839484054662    -4.470240690541     2.695319597577
H                     2.161587081308    -3.609934449283     3.498667542842
H                    -0.463525676128    -2.377934251669     2.496125447203
H                     0.794990739537    -1.466078868613     3.318275815487
H                     3.223032172731    -2.265458582768     2.207852981336
H                     3.184296707832    -1.818176038164     0.498917757075
H                     2.061596015167     1.763705869914     1.202906436746
H                     2.464274064514     0.714252865437    -0.139379916725
H                    -0.735571261504    -2.878006715752    -0.334808886577
H                    -1.477048839193    -1.879268991500     0.911638478609
H                    -3.411291796814     0.209054351675    -3.313565439798
H                     0.619073210790     3.062400986068     0.106861876586
H                    -0.749277385186     4.184092543084    -1.585842360767
H                    -2.387474972812     2.965059526095    -2.984089495314
H                    -4.111427944680    -2.192299912770    -2.891198235764
H                    -2.554555908905    -3.019682065631    -3.044750100286
H                    -4.571536802936    -3.503041208364     0.412226612897
H                    -5.410073720351    -2.710604230419    -0.947443820499
H                    -4.217949205771    -1.793555396383     0.019616731494
H                     1.606658244863     0.485884111793     3.495411346128
H                     3.198445271288     1.207874870993     3.474092600805
