
  -OEChem-12102412493D

 53 56  0     1  0  0  0  0  0999 V2000
   -3.0965   -1.4998   -4.5980 C   0  0  0  0  0  0  0  0  0  0  0  0
   -1.9212   -2.4524   -4.3459 C   0  0  0  0  0  0  0  0  0  0  0  0
   -1.3256   -2.3533   -2.9400 C   0  0  0  0  0  0  0  0  0  0  0  0
   -0.9463   -0.9376   -2.5550 N   0  3  2  0  0  0  0  0  0  0  0  0
   -1.7771   -0.3773   -2.7648 H   0  0  0  0  0  0  0  0  0  0  0  0
    0.1583   -0.3499   -3.3939 C   0  0  0  0  0  0  0  0  0  0  0  0
    0.1121    1.1871   -3.2931 C   0  0  1  0  0  0  0  0  0  0  0  0
   -0.6361    1.5481   -4.0071 H   0  0  0  0  0  0  0  0  0  0  0  0
   -0.2784    1.6425   -1.8635 C   0  0  0  0  0  0  0  0  0  0  0  0
    0.1304    0.5815   -0.8445 C   0  0  2  0  0  0  0  0  0  0  0  0
    1.1820    0.3256   -1.0374 H   0  0  0  0  0  0  0  0  0  0  0  0
   -0.6946   -0.7240   -1.0430 C   0  0  2  0  0  0  0  0  0  0  0  0
   -1.6954   -0.5727   -0.6277 H   0  0  0  0  0  0  0  0  0  0  0  0
   -0.0500   -1.9328   -0.3303 C   0  0  0  0  0  0  0  0  0  0  0  0
    0.0600   -1.5389    1.1224 C   0  0  0  0  0  0  0  0  0  0  0  0
    0.0784   -2.2465    2.3085 C   0  0  0  0  0  0  0  0  0  0  0  0
    0.1214   -1.3391    3.3642 N   0  0  0  0  0  0  0  0  0  0  0  0
    0.0990   -0.0414    2.8793 C   0  0  0  0  0  0  0  0  0  0  0  0
    0.0801   -0.1554    1.4751 C   0  0  0  0  0  0  0  0  0  0  0  0
    0.0549    0.9544    0.6239 C   0  0  0  0  0  0  0  0  0  0  0  0
    0.0300    2.2135    1.2113 C   0  0  0  0  0  0  0  0  0  0  0  0
    0.0425    2.3333    2.6255 C   0  0  0  0  0  0  0  0  0  0  0  0
    0.0818    1.2275    3.4777 C   0  0  0  0  0  0  0  0  0  0  0  0
    0.0885   -3.7184    2.6047 C   0  0  0  0  0  0  0  0  0  0  0  0
   -0.7216   -4.0462    3.7240 O   0  0  0  0  0  0  0  0  0  0  0  0
   -2.1199   -3.9467    3.4591 C   0  0  0  0  0  0  0  0  0  0  0  0
    1.4762    1.7750   -3.7197 C   0  0  0  0  0  0  0  0  0  0  0  0
    1.9108    1.2282   -5.0118 C   0  0  0  0  0  0  0  0  0  0  0  0
    2.1891    0.7245   -6.0217 N   0  0  0  0  0  0  0  0  0  0  0  0
   -3.5722   -1.7285   -5.5544 H   0  0  0  0  0  0  0  0  0  0  0  0
   -3.8649   -1.5882   -3.8213 H   0  0  0  0  0  0  0  0  0  0  0  0
   -2.7837   -0.4493   -4.6591 H   0  0  0  0  0  0  0  0  0  0  0  0
   -1.1490   -2.3192   -5.1090 H   0  0  0  0  0  0  0  0  0  0  0  0
   -2.2609   -3.4882   -4.4478 H   0  0  0  0  0  0  0  0  0  0  0  0
   -2.0606   -2.6746   -2.1985 H   0  0  0  0  0  0  0  0  0  0  0  0
   -0.4307   -2.9675   -2.8339 H   0  0  0  0  0  0  0  0  0  0  0  0
    1.0956   -0.7713   -3.0263 H   0  0  0  0  0  0  0  0  0  0  0  0
    0.0256   -0.6791   -4.4221 H   0  0  0  0  0  0  0  0  0  0  0  0
    0.2105    2.5925   -1.6343 H   0  0  0  0  0  0  0  0  0  0  0  0
   -1.3554    1.8383   -1.7945 H   0  0  0  0  0  0  0  0  0  0  0  0
   -0.6605   -2.8325   -0.4416 H   0  0  0  0  0  0  0  0  0  0  0  0
    0.9323   -2.1464   -0.7738 H   0  0  0  0  0  0  0  0  0  0  0  0
    0.0683   -1.6257    4.3341 H   0  0  0  0  0  0  0  0  0  0  0  0
    0.0070    3.1194    0.6120 H   0  0  0  0  0  0  0  0  0  0  0  0
    0.0261    3.3274    3.0621 H   0  0  0  0  0  0  0  0  0  0  0  0
    0.0971    1.3602    4.5557 H   0  0  0  0  0  0  0  0  0  0  0  0
   -0.2204   -4.2766    1.7078 H   0  0  0  0  0  0  0  0  0  0  0  0
    1.0987   -4.0486    2.8695 H   0  0  0  0  0  0  0  0  0  0  0  0
   -2.6342   -4.2297    4.3787 H   0  0  0  0  0  0  0  0  0  0  0  0
   -2.4149   -4.6352    2.6545 H   0  0  0  0  0  0  0  0  0  0  0  0
   -2.4086   -2.9235    3.1814 H   0  0  0  0  0  0  0  0  0  0  0  0
    2.2440    1.5538   -2.9697 H   0  0  0  0  0  0  0  0  0  0  0  0
    1.4027    2.8636   -3.7969 H   0  0  0  0  0  0  0  0  0  0  0  0
  1  2  1  0  0  0  0
  1 30  1  0  0  0  0
  1 31  1  0  0  0  0
  1 32  1  0  0  0  0
  2  3  1  0  0  0  0
  2 33  1  0  0  0  0
  2 34  1  0  0  0  0
  3  4  1  0  0  0  0
  3 35  1  0  0  0  0
  3 36  1  0  0  0  0
  4  5  1  0  0  0  0
  4  6  1  0  0  0  0
  4 12  1  0  0  0  0
  6  7  1  0  0  0  0
  6 37  1  0  0  0  0
  6 38  1  0  0  0  0
  7  8  1  0  0  0  0
  7  9  1  0  0  0  0
  7 27  1  0  0  0  0
  9 10  1  0  0  0  0
  9 39  1  0  0  0  0
  9 40  1  0  0  0  0
 10 11  1  0  0  0  0
 10 12  1  0  0  0  0
 10 20  1  0  0  0  0
 12 13  1  0  0  0  0
 12 14  1  0  0  0  0
 14 15  1  0  0  0  0
 14 41  1  0  0  0  0
 14 42  1  0  0  0  0
 15 16  2  0  0  0  0
 15 19  1  0  0  0  0
 16 17  1  0  0  0  0
 16 24  1  0  0  0  0
 17 18  1  0  0  0  0
 17 43  1  0  0  0  0
 18 19  2  0  0  0  0
 18 23  1  0  0  0  0
 19 20  1  0  0  0  0
 20 21  2  0  0  0  0
 21 22  1  0  0  0  0
 21 44  1  0  0  0  0
 22 23  2  0  0  0  0
 22 45  1  0  0  0  0
 23 46  1  0  0  0  0
 24 25  1  0  0  0  0
 24 47  1  0  0  0  0
 24 48  1  0  0  0  0
 25 26  1  0  0  0  0
 26 49  1  0  0  0  0
 26 50  1  0  0  0  0
 26 51  1  0  0  0  0
 27 28  1  0  0  0  0
 27 52  1  0  0  0  0
 27 53  1  0  0  0  0
 28 29  3  0  0  0  0
M  CHG  1   4   1
M  END
$$$$
