
  -OEChem-12122420533D

 53 56  0     1  0  0  0  0  0999 V2000
    0.3971   -3.8073    4.7121 C   0  0  0  0  0  0  0  0  0  0  0  0
    1.0786   -3.6220    3.3507 C   0  0  0  0  0  0  0  0  0  0  0  0
    0.6061   -2.3299    2.6884 C   0  0  0  0  0  0  0  0  0  0  0  0
    1.2909   -2.0954    1.3480 N   0  3  2  0  0  0  0  0  0  0  0  0
    1.3395   -3.0255    0.9190 H   0  0  0  0  0  0  0  0  0  0  0  0
    2.7305   -1.6278    1.4746 C   0  0  0  0  0  0  0  0  0  0  0  0
    2.8848   -0.1391    1.8043 C   0  0  1  0  0  0  0  0  0  0  0  0
    3.9398    0.0639    1.5931 H   0  0  0  0  0  0  0  0  0  0  0  0
    2.0282    0.7248    0.8656 C   0  0  0  0  0  0  0  0  0  0  0  0
    0.5650    0.2554    0.7601 C   0  0  2  0  0  0  0  0  0  0  0  0
    0.0749    0.3382    1.7407 H   0  0  0  0  0  0  0  0  0  0  0  0
    0.5325   -1.2325    0.3282 C   0  0  2  0  0  0  0  0  0  0  0  0
    1.1371   -1.3212   -0.5812 H   0  0  0  0  0  0  0  0  0  0  0  0
   -0.8491   -1.8456    0.0148 C   0  0  0  0  0  0  0  0  0  0  0  0
   -1.4967   -0.9655   -1.0105 C   0  0  0  0  0  0  0  0  0  0  0  0
   -2.4658   -1.1594   -1.9707 C   0  0  0  0  0  0  0  0  0  0  0  0
   -2.7340    0.0697   -2.5753 N   0  0  0  0  0  0  0  0  0  0  0  0
   -1.9398    1.0599   -2.0140 C   0  0  0  0  0  0  0  0  0  0  0  0
   -1.1599    0.4180   -1.0269 C   0  0  0  0  0  0  0  0  0  0  0  0
   -0.2206    1.0955   -0.2438 C   0  0  0  0  0  0  0  0  0  0  0  0
   -0.0872    2.4650   -0.4625 C   0  0  0  0  0  0  0  0  0  0  0  0
   -0.8761    3.1151   -1.4428 C   0  0  0  0  0  0  0  0  0  0  0  0
   -1.8047    2.4360   -2.2354 C   0  0  0  0  0  0  0  0  0  0  0  0
   -3.1740   -2.4274   -2.3631 C   0  0  0  0  0  0  0  0  0  0  0  0
   -3.4181   -3.2653   -1.2426 O   0  0  0  0  0  0  0  0  0  0  0  0
   -4.4613   -2.7803   -0.3982 C   0  0  0  0  0  0  0  0  0  0  0  0
    2.6598    0.2740    3.2874 C   0  0  0  0  0  0  0  0  0  0  0  0
    3.1191   -0.7408    4.2399 C   0  0  0  0  0  0  0  0  0  0  0  0
    3.4437   -1.6210    4.9264 N   0  0  0  0  0  0  0  0  0  0  0  0
    0.7114   -4.7509    5.1640 H   0  0  0  0  0  0  0  0  0  0  0  0
    0.6750   -3.0026    5.3987 H   0  0  0  0  0  0  0  0  0  0  0  0
   -0.6935   -3.8263    4.6176 H   0  0  0  0  0  0  0  0  0  0  0  0
    0.8395   -4.4702    2.6953 H   0  0  0  0  0  0  0  0  0  0  0  0
    2.1616   -3.6099    3.4987 H   0  0  0  0  0  0  0  0  0  0  0  0
   -0.4635   -2.3779    2.4961 H   0  0  0  0  0  0  0  0  0  0  0  0
    0.7950   -1.4661    3.3183 H   0  0  0  0  0  0  0  0  0  0  0  0
    3.2230   -2.2655    2.2079 H   0  0  0  0  0  0  0  0  0  0  0  0
    3.1843   -1.8182    0.4989 H   0  0  0  0  0  0  0  0  0  0  0  0
    2.0616    1.7637    1.2029 H   0  0  0  0  0  0  0  0  0  0  0  0
    2.4643    0.7143   -0.1394 H   0  0  0  0  0  0  0  0  0  0  0  0
   -0.7356   -2.8780   -0.3348 H   0  0  0  0  0  0  0  0  0  0  0  0
   -1.4770   -1.8793    0.9116 H   0  0  0  0  0  0  0  0  0  0  0  0
   -3.4113    0.2091   -3.3136 H   0  0  0  0  0  0  0  0  0  0  0  0
    0.6191    3.0624    0.1069 H   0  0  0  0  0  0  0  0  0  0  0  0
   -0.7493    4.1841   -1.5858 H   0  0  0  0  0  0  0  0  0  0  0  0
   -2.3875    2.9651   -2.9841 H   0  0  0  0  0  0  0  0  0  0  0  0
   -4.1114   -2.1923   -2.8912 H   0  0  0  0  0  0  0  0  0  0  0  0
   -2.5546   -3.0197   -3.0448 H   0  0  0  0  0  0  0  0  0  0  0  0
   -4.5715   -3.5030    0.4122 H   0  0  0  0  0  0  0  0  0  0  0  0
   -5.4101   -2.7106   -0.9474 H   0  0  0  0  0  0  0  0  0  0  0  0
   -4.2179   -1.7936    0.0196 H   0  0  0  0  0  0  0  0  0  0  0  0
    1.6067    0.4859    3.4954 H   0  0  0  0  0  0  0  0  0  0  0  0
    3.1984    1.2079    3.4741 H   0  0  0  0  0  0  0  0  0  0  0  0
  1  2  1  0  0  0  0
  1 30  1  0  0  0  0
  1 31  1  0  0  0  0
  1 32  1  0  0  0  0
  2  3  1  0  0  0  0
  2 33  1  0  0  0  0
  2 34  1  0  0  0  0
  3  4  1  0  0  0  0
  3 35  1  0  0  0  0
  3 36  1  0  0  0  0
  4  5  1  0  0  0  0
  4  6  1  0  0  0  0
  4 12  1  0  0  0  0
  6  7  1  0  0  0  0
  6 37  1  0  0  0  0
  6 38  1  0  0  0  0
  7  8  1  0  0  0  0
  7  9  1  0  0  0  0
  7 27  1  0  0  0  0
  9 10  1  0  0  0  0
  9 39  1  0  0  0  0
  9 40  1  0  0  0  0
 10 11  1  0  0  0  0
 10 12  1  0  0  0  0
 10 20  1  0  0  0  0
 12 13  1  0  0  0  0
 12 14  1  0  0  0  0
 14 15  1  0  0  0  0
 14 41  1  0  0  0  0
 14 42  1  0  0  0  0
 15 16  2  0  0  0  0
 15 19  1  0  0  0  0
 16 17  1  0  0  0  0
 16 24  1  0  0  0  0
 17 18  1  0  0  0  0
 17 43  1  0  0  0  0
 18 19  2  0  0  0  0
 18 23  1  0  0  0  0
 19 20  1  0  0  0  0
 20 21  2  0  0  0  0
 21 22  1  0  0  0  0
 21 44  1  0  0  0  0
 22 23  2  0  0  0  0
 22 45  1  0  0  0  0
 23 46  1  0  0  0  0
 24 25  1  0  0  0  0
 24 47  1  0  0  0  0
 24 48  1  0  0  0  0
 25 26  1  0  0  0  0
 26 49  1  0  0  0  0
 26 50  1  0  0  0  0
 26 51  1  0  0  0  0
 27 28  1  0  0  0  0
 27 52  1  0  0  0  0
 27 53  1  0  0  0  0
 28 29  3  0  0  0  0
M  CHG  1   4   1
M  END
$$$$
