8    
torsion grid (-165,)
C       -0.4072464463    0.7757214813   -0.2381306647
C        0.1478326342   -0.4207407126    0.6152401917
O       -1.0564201886    1.6572990781    0.2512004448
O       -0.0647786107    0.7521266405   -1.5392612369
Cl      -0.6019335228   -0.4556680436    2.2139241644
Cl       1.9297492185   -0.1922988497    0.7530236678
Cl      -0.1887880639   -1.9841790963   -0.2540132991
H        0.2494365248   -0.1314604558   -1.8067573937
8    
torsion grid (-150,)
C       -0.3862411659    0.7780519235   -0.2357588351
C        0.1635300783   -0.4146094216    0.6248796574
O       -1.0851917567    1.6319909376    0.2326131025
O        0.0116658035    0.7706060083   -1.5244846332
Cl      -0.6043995229   -0.4550297537    2.2156808020
Cl       1.9413755070   -0.1945601667    0.7823209546
Cl      -0.1751367439   -1.9740958794   -0.2559799561
H        0.1422493457   -0.1415536060   -1.8440452176
8    
torsion grid (-135,)
C       -0.3702702214    0.7704802560   -0.2335421155
C        0.1773670268   -0.4121887331    0.6388669277
O       -1.1272863222    1.5902184776    0.2030505454
O        0.0934364245    0.7820550726   -1.5053196513
Cl      -0.5959367516   -0.4434845148    2.2286754593
Cl       1.9535549875   -0.2073816925    0.8019374062
Cl      -0.1779996924   -1.9691361305   -0.2418355640
H        0.0549860938   -0.1097626935   -1.8966071334
8    
torsion grid (-120,)
C       -0.3553516539    0.7530356831   -0.2327214840
C        0.1892420771   -0.4154213904    0.6553520957
O       -1.1468498880    1.5545562636    0.1736464744
O        0.1675403569    0.7735178803   -1.4884333376
Cl      -0.5955647562   -0.4330715868    2.2428876189
Cl       1.9623892037   -0.2124248713    0.8308855941
Cl      -0.1693355148   -1.9726578180   -0.2181944040
H       -0.0442182796   -0.0467341186   -1.9681966830
8    
torsion grid (-105,)
C       -0.3441478027    0.7254486284   -0.2356282362
C        0.1979853983   -0.4241125073    0.6728716973
O       -1.1507666562    1.5242222983    0.1443507240
O        0.2306024354    0.7439862281   -1.4745404076
Cl      -0.5993802163   -0.4208429512    2.2567811237
Cl       1.9681591244   -0.2115952852    0.8615496710
Cl      -0.1524341308   -1.9880602872   -0.1833017089
H       -0.1421666070    0.0517539180   -2.0468569890
8    
torsion grid (-90,)
C       -0.3416484545    0.6890589695   -0.2432522155
C        0.2040048595   -0.4358781970    0.6891180854
O       -1.1617654282    1.4865089356    0.1106774251
O        0.2838243612    0.7027080915   -1.4601354575
Cl      -0.5955268001   -0.3987520501    2.2733469505
Cl       1.9731856913   -0.2142416239    0.8779283983
Cl      -0.1435225593   -2.0126039648   -0.1356460295
H       -0.2107001248    0.1839998809   -2.1168112826
8    
torsion grid (-75,)
C       -0.3442652141    0.6486007712   -0.2550836020
C        0.2090239067   -0.4488301943    0.7022345540
O       -1.1806435790    1.4420374113    0.0726980245
O        0.3222246314    0.6548524389   -1.4483736453
Cl      -0.5862682882   -0.3691723396    2.2878931831
Cl       1.9785894572   -0.2198658511    0.8825078697
Cl      -0.1391903053   -2.0433892478   -0.0807621266
H       -0.2516190637    0.3365670532   -2.1658883831
8    
torsion grid (-60,)
C       -0.3497938587    0.6071907270   -0.2702664690
C        0.2135154202   -0.4615669066    0.7118243975
O       -1.2146400653    1.3844493808    0.0269266869
O        0.3492697167    0.6115014073   -1.4393200747
Cl      -0.5667877812   -0.3270261809    2.3021282046
Cl       1.9863333682   -0.2386167767    0.8727842266
Cl      -0.1501638255   -2.0744102095   -0.0189942810
H       -0.2598814291    0.4992786005   -2.1898568165
8    
torsion grid (-45,)
C       -0.3539386962    0.5690319850   -0.2862082551
C        0.2186155495   -0.4726766973    0.7184175885
O       -1.2462959628    1.3287012941   -0.0192446793
O        0.3587404832    0.5645133493   -1.4397200944
Cl      -0.5497884075   -0.2872158768    2.3097206547
Cl       1.9938619094   -0.2539981198    0.8628801440
Cl      -0.1564830092   -2.1033830167    0.0385820139
H       -0.2568603213    0.6558271240   -2.1892014980
8    
torsion grid (-30,)
C       -0.3553289001    0.5378276562   -0.3004949770
C        0.2216491948   -0.4828297467    0.7224459657
O       -1.2596487340    1.2932355937   -0.0558392312
O        0.3459634177    0.5033985548   -1.4537531580
Cl      -0.5419825819   -0.2573059631    2.3112739343
Cl       1.9980406424   -0.2598702769    0.8566947570
Cl      -0.1538512623   -2.1290006993    0.0858837228
H       -0.2469902314    0.7953449232   -2.1709851394
8    
torsion grid (-15,)
C       -0.2478726840    0.5940897259   -0.2754083694
C        0.1227852093   -0.5678821278    0.6906695164
O       -0.9800325333    1.5051405505    0.0158298037
O        0.3850850677    0.4512597471   -1.4545798983
Cl      -0.5554866224   -0.2571063620    2.3039336415
Cl       1.9103043807   -0.7128144123    0.7933733698
Cl      -0.5860986493   -2.0769554218    0.0043619637
H       -0.0408326237    1.0650683422   -2.0829541531
8    
torsion grid (0,)
C       -0.2512331921    0.5856807021   -0.2805755582
C        0.1149934855   -0.5755268523    0.6884619620
O       -0.9126633199    1.5432238055    0.0316194715
O        0.2708581294    0.3678731874   -1.5000366491
Cl      -0.5844422685   -0.2682799081    2.2934140183
Cl       1.9081257795   -0.6703868496    0.8071097231
Cl      -0.5457849536   -2.1070855891    0.0128252603
H        0.0079978848    1.1253015459   -2.0575923537
8    
torsion grid (15,)
C       -0.2616050787    0.5860505847   -0.2798517635
C        0.1047872749   -0.5784190959    0.6848442560
O       -0.8493086096    1.5816702252    0.0581385877
O        0.1396409373    0.3075712569   -1.5340180159
Cl      -0.6091295216   -0.2885118343    2.2865718936
Cl       1.9029770314   -0.6197920473    0.8099548635
Cl      -0.5062352774   -2.1275134342    0.0112543502
H        0.0867247889    1.1397443868   -2.0416682974
8    
torsion grid (30,)
C       -0.2886652272    0.5875334118   -0.2782182420
C        0.0990068979   -0.5742716890    0.6814549157
O       -0.8821249501    1.5747521936    0.0703447874
O        0.0647795309    0.2936969823   -1.5477604340
Cl      -0.5875191042   -0.2912238302    2.2960552709
Cl       1.9010150669   -0.5966944037    0.7728566820
Cl      -0.5079937551   -2.1285945546    0.0189366689
H        0.2093530861    1.1356019316   -2.0184437748
8    
torsion grid (45,)
C       -0.3225731496    0.5924165254   -0.2757323344
C        0.0921469649   -0.5669717699    0.6761472103
O       -0.9311691133    1.5636898468    0.0860795033
O        0.0019594401    0.2984395287   -1.5590007349
Cl      -0.5585956540   -0.2937452340    2.3067812210
Cl       1.8975946712   -0.5716658381    0.7252908168
Cl      -0.5148920801   -2.1247506918    0.0242132396
H        0.3433804660    1.1033876747   -1.9885530474
8    
torsion grid (60,)
C       -0.3639113131    0.5966588434   -0.2749959614
C        0.0858715460   -0.5567385493    0.6691610202
O       -1.0058343052    1.5401552066    0.0967071558
O       -0.0383318713    0.3224448150   -1.5689045369
Cl      -0.5165675457   -0.2895389281    2.3189222124
Cl       1.8935103299   -0.5504516672    0.6642363695
Cl      -0.5311172241   -2.1158539224    0.0312093916
H        0.4842319287    1.0541242438   -1.9411097768
8    
torsion grid (75,)
C       -0.4081287365    0.6009736825   -0.2764438820
C        0.0792213760   -0.5456117082    0.6588492521
O       -1.0824513790    1.5152600468    0.1054996287
O       -0.0680803673    0.3637796448   -1.5788628148
Cl      -0.4692928850   -0.2819062438    2.3270039198
Cl       1.8883479659   -0.5314645271    0.5970734778
Cl      -0.5502406263   -2.1055883189    0.0371290201
H        0.6184761974    0.9853574658   -1.8750227274
8    
torsion grid (90,)
C       -0.4495714137    0.6085773797   -0.2793421528
C        0.0738974283   -0.5328870637    0.6456306110
O       -1.1412043550    1.5018434498    0.1175262085
O       -0.0985098103    0.4175788289   -1.5879609394
Cl      -0.4351665628   -0.2791347672    2.3269616733
Cl       1.8836849299   -0.5009268905    0.5420784777
Cl      -0.5523575939   -2.0975133639    0.0336484103
H        0.7270789228    0.8832624689   -1.8033164143
8    
torsion grid (105,)
C       -0.4846697931    0.6206580297   -0.2826163877
C        0.0710885768   -0.5187278132    0.6304573836
O       -1.1906175180    1.4945079766    0.1310033528
O       -0.1190462162    0.4832303630   -1.5914394280
Cl      -0.4080045188   -0.2780974219    2.3207645411
Cl       1.8826176851   -0.4705341592    0.4970449404
Cl      -0.5471565664   -2.0872405679    0.0206882300
H        0.8036398958    0.7570036348   -1.7306767579
8    
torsion grid (120,)
C       -0.5082720636    0.6389994753   -0.2838547211
C        0.0720819287   -0.5027764924    0.6161926423
O       -1.2302672400    1.4923549282    0.1457342509
O       -0.1273238573    0.5536140998   -1.5870184297
Cl      -0.3922596680   -0.2814304420    2.3108591872
Cl       1.8861992077   -0.4398582216    0.4689995350
Cl      -0.5329724965   -2.0731908861   -0.0033051831
H        0.8406657341    0.6130875808   -1.6723814070
8    
torsion grid (135,)
C       -0.5205714450    0.6583973609   -0.2838004753
C        0.0781650087   -0.4861522830    0.6057107673
O       -1.2778429832    1.4779526815    0.1526931329
O       -0.1134281004    0.6277720158   -1.5744874578
Cl      -0.3771753077   -0.2803184290    2.3018142585
Cl       1.8942533917   -0.4238713351    0.4509463683
Cl      -0.5241180318   -2.0549576691   -0.0263390333
H        0.8485690129    0.4819776999   -1.6313116862
8    
torsion grid (150,)
C       -0.5232727050    0.6758644699   -0.2815814635
C        0.0886932021   -0.4704044781    0.5998685878
O       -1.3354324971    1.4453914533    0.1489311338
O       -0.0792203585    0.7028073162   -1.5548809648
Cl      -0.3599560732   -0.2727127009    2.2974052125
Cl       1.9037888600   -0.4238564372    0.4390320659
Cl      -0.5252940400   -2.0339306640   -0.0422769496
H        0.8385451568    0.3776410825   -1.6112717479
8    
torsion grid (165,)
C       -0.5160474451    0.6945927188   -0.2745058459
C        0.1011708747   -0.4555262359    0.5996477182
O       -1.3712016716    1.4225936686    0.1459393501
O       -0.0415686119    0.7694018194   -1.5315122429
Cl      -0.3592012837   -0.2746392724    2.2950868542
Cl       1.9147345945   -0.4155584916    0.4492535575
Cl      -0.5132154320   -2.0140184243   -0.0636979039
H        0.7931805203    0.2739542592   -1.6249856130
8    
torsion grid (180,)
C       -0.4767842615    0.7341069845   -0.2514706359
C        0.1205385397   -0.4360839450    0.6083401582
O       -1.2670718669    1.5179924019    0.1941483713
O       -0.0445017002    0.7803662038   -1.5252483038
Cl      -0.4538215029   -0.3505528316    2.2751360318
Cl       1.9277717045   -0.3180318479    0.5641103227
Cl      -0.3920558818   -1.9961766379   -0.1539346054
H        0.5937765141    0.0691797140   -1.7158554647
