24   
torsion grid (-165,)
C       -1.8881315357   -0.8152108155    0.5805265262
C       -0.4163722063   -0.7563424886    1.0288999607
C       -0.3058221358   -0.0031265866    2.3677228121
C        0.1075674324   -2.1911064215    1.2241278302
C        0.4483055387   -0.0726905341   -0.0588967871
C        0.0504716115    1.3423308253   -0.4181985969
C        0.4502432533    2.0264780648   -1.4997581894
C        1.3617525826    1.5303418493   -2.5903467224
H       -1.9875359747   -1.3573495989   -0.3670502544
H       -2.5025557372   -1.3296939334    1.3282935737
H       -2.3080914454    0.1851636142    0.4345927214
H        0.7378418548    0.0618524586    2.6968727357
H       -0.6984307026    1.0163994725    2.3018825653
H       -0.8722904837   -0.5217550285    3.1495305300
H        1.1568689371   -2.1896363106    1.5418679633
H       -0.4724210614   -2.7209443227    1.9883855109
H        0.0396898807   -2.7671622961    0.2939040986
H        1.4926244685   -0.0777902907    0.2859273932
H        0.4285041207   -0.7010279052   -0.9579349352
H       -0.5974465298    1.8633946212    0.2846321885
H        0.0920023490    3.0499295114   -1.6148677492
H        0.8774674320    1.6083899966   -3.5719022282
H        1.6645974666    0.4909126473   -2.4430652395
H        2.2734414317    2.1394200347   -2.6406324304
24   
torsion grid (-150,)
C       -1.7302737546   -0.7935501392    0.4106127530
C       -0.3127740865   -0.7341248166    1.0075240269
C       -0.3471779961   -0.0032502893    2.3626677261
C        0.2039271442   -2.1669380708    1.2324991563
C        0.6494412931   -0.0257853142    0.0190285819
C        0.2662442053    1.3831101728   -0.3642163947
C        0.5274012881    2.0032402713   -1.5247181071
C        1.2270652853    1.4322401812   -2.7293442080
H       -1.7295475747   -1.3239434435   -0.5488258127
H       -2.4165952447   -1.3187240952    1.0848931367
H       -2.1328551179    0.2089870480    0.2332594168
H        0.6584457113    0.0804238294    2.7912195526
H       -0.7605358696    1.0065261753    2.2776208120
H       -0.9713080255   -0.5506583047    3.0781122892
H        1.2159033410   -2.1613019149    1.6544187783
H       -0.4444649448   -2.7143736098    1.9261488752
H        0.2361347976   -2.7283684334    0.2914965157
H        1.6491198266   -0.0087526997    0.4787349008
H        0.7416596600   -0.6475299641   -0.8782984932
H       -0.2306178268    1.9718643288    0.4057097161
H        0.2058762195    3.0407616891   -1.6230611725
H        0.6054781609    1.5366117574   -3.6273607591
H        1.4786496881    0.3757080340   -2.6118046193
H        2.1598547222    1.9755282809   -2.9279736757
24   
torsion grid (-135,)
C       -1.6399519376   -0.7557202134    0.2059447839
C       -0.3459427311   -0.6847261152    1.0356904197
C       -0.6272051270    0.0159118585    2.3776877215
C        0.1596729758   -2.1114077579    1.3165274353
C        0.7525929866    0.0655711903    0.2346723242
C        0.4203536604    1.4844435967   -0.1471870287
C        0.6057726916    2.0755227131   -1.3376166832
C        1.1418306323    1.4583676695   -2.6019826499
H       -1.4671110046   -1.2694149726   -0.7471481816
H       -2.4215432700   -1.3028458304    0.7456520848
H       -2.0211431765    0.2449054653   -0.0219761483
H        0.2915933520    0.1293799898    2.9651799629
H       -1.0637593857    1.0097928630    2.2387191380
H       -1.3351969791   -0.5697432537    2.9750342952
H        1.0815506060   -2.0954373028    1.9098705329
H       -0.5862801557   -2.6904086033    1.8729451757
H        0.3706861409   -2.6473172847    0.3837514563
H        1.6649271500    0.0761167049    0.8499569634
H        0.9941133552   -0.5231307891   -0.6560366216
H        0.0327491477    2.1107446594    0.6557012477
H        0.3379673590    3.1298833739   -1.4180538726
H        0.4350036427    1.5967897940   -3.4295548532
H        1.3397376824    0.3887814442   -2.5034800296
H        2.0782404726    1.9447873820   -2.9037290504
24   
torsion grid (-120,)
C       -1.4891091222   -0.6447812886    0.0315321242
C       -0.2877590043   -0.6082615242    0.9922483717
C       -0.6851810910    0.1164626287    2.2908432365
C        0.1399834999   -2.0474851242    1.3310109797
C        0.9119733844    0.1024699838    0.3052404575
C        0.6859007431    1.5472686367   -0.0524899732
C        0.7332037041    2.1063992524   -1.2716991238
C        0.9731753467    1.4232432588   -2.5915477016
H       -1.2383359902   -1.1827472684   -0.8904566859
H       -2.3438655444   -1.1521743732    0.4934927171
H       -1.8031799134    0.3658996072   -0.2478536707
H        0.1711184529    0.2130099569    2.9690591891
H       -1.0751551982    1.1197862596    2.0932466103
H       -1.4672197963   -0.4414351545    2.8183870345
H        0.9877303186   -2.0557581493    2.0262390303
H       -0.6818231920   -2.6018503801    1.7986437173
H        0.4406789807   -2.5936553880    0.4292444700
H        1.7696267918    0.0486108227    0.9915915403
H        1.1931400367   -0.4748796112   -0.5809322141
H        0.4974801550    2.2145669832    0.7882138282
H        0.5699642406    3.1831731116   -1.3339851130
H        0.1321020526    1.5994535369   -3.2738333100
H        1.1034239558    0.3433663470   -2.4945537158
H        1.8668948779    1.8283517112   -3.0827623376
24   
torsion grid (-105,)
C       -1.3654350854   -0.6372770549   -0.1108835467
C       -0.2325447836   -0.6026640588    0.9293994374
C       -0.7091121119    0.1477387372    2.1858146765
C        0.1509802789   -2.0425879654    1.3140647656
C        1.0232726376    0.0879913417    0.3235374626
C        0.8480566841    1.5432093188   -0.0245162315
C        0.7030743607    2.0775793446   -1.2471912188
C        0.6626364850    1.3527899269   -2.5657905495
H       -1.0635798599   -1.1980083531   -1.0033503452
H       -2.2575082232   -1.1220416805    0.3022364513
H       -1.6436062474    0.3727311326   -0.4272819023
H        0.0957642874    0.2330478961    2.9258143369
H       -1.0545790865    1.1577115960    1.9436491868
H       -1.5428728223   -0.3831594369    2.6593690385
H        0.9448939274   -2.0527318873    2.0700827347
H       -0.7100973707   -2.5816884093    1.7256248537
H        0.5104092364   -2.6027855952    0.4428692295
H        1.8393329599    0.0023901878    1.0540403514
H        1.3377980027   -0.4835387119   -0.5558647159
H        0.8412928896    2.2316715958    0.8203032618
H        0.5910303408    3.1607126990   -1.3110485685
H       -0.3047245873    1.5078449783   -3.0603669028
H        0.8121842300    0.2761373419   -2.4622472358
H        1.4306563950    1.7398298883   -3.2469321341
24   
torsion grid (-90,)
C       -1.3973787227   -0.7827503459   -0.3015498767
C       -0.3189142264   -0.7046930340    0.7909908687
C       -0.8765489593    0.0624635738    2.0038794686
C        0.0661259442   -2.1306642597    1.2247605020
C        0.9661652911   -0.0018022796    0.2600159489
C        0.8028231506    1.4466180908   -0.1299089572
C        0.4657891032    1.9378612124   -1.3331127914
C        0.2572116552    1.1699117798   -2.6107943747
H       -1.0428854589   -1.3481669401   -1.1707754400
H       -2.2923855734   -1.2868252704    0.0810058450
H       -1.6923134628    0.2138456997   -0.6418610391
H       -0.1218273240    0.1564668320    2.7939493836
H       -1.1990157174    1.0702061034    1.7229836907
H       -1.7419064170   -0.4590279777    2.4288372687
H        0.8187617900   -2.1136834091    2.0216229937
H       -0.8073873349   -2.6754176287    1.6010911000
H        0.4795643201   -2.7016625669    0.3850465077
H        1.7339673592   -0.0711255639    1.0407151136
H        1.3413747349   -0.5838144369   -0.5903413544
H        0.9156047775    2.1674969724    0.6798873006
H        0.3524733288    3.0193107918   -1.4181441180
H       -0.7867831986    1.2362065512   -2.9426018101
H        0.5047482369    0.1112813664   -2.5103441498
H        0.8719316134    1.5901227391   -3.4161859122
24   
torsion grid (-75,)
C       -1.2891057041   -0.8586695836   -0.2864303980
C       -0.2658405340   -0.8262628942    0.8570627702
C       -0.8944804332   -0.1177836191    2.0723060722
C        0.0955910242   -2.2725378998    1.2448638723
C        1.0592867838   -0.1037236916    0.4634419042
C        0.9639026175    1.3627885323    0.1050055258
C        0.4907817455    1.9278096999   -1.0183370706
C        0.1587133856    1.2548553358   -2.3236646072
H       -0.8880668201   -1.3613515128   -1.1730678735
H       -2.1833731270   -1.4080530679    0.0297920463
H       -1.6019732379    0.1479574632   -0.5730061313
H       -0.1948404969   -0.0845583582    2.9160287268
H       -1.1755273203    0.9113652311    1.8261199663
H       -1.7970928521   -0.6420893071    2.4068008085
H        0.8064304969   -2.2951577425    2.0789310422
H       -0.7968976123   -2.8301740397    1.5509826721
H        0.5503940677   -2.8062748828    0.4019745517
H        1.7593989958   -0.2145365480    1.2990719715
H        1.4992985846   -0.6623222785   -0.3745541190
H        1.1902476054    2.0492178723    0.9216932726
H        0.4226448609    3.0162998902   -1.0316870292
H       -0.9087331937    1.3379138265   -2.5627107335
H        0.4188037401    0.1947991889   -2.3246037504
H        0.7033885243    1.7403943030   -3.1427719220
24   
torsion grid (-60,)
C       -1.1854476479   -0.8745630359   -0.4059236255
C       -0.2201290544   -0.7343470049    0.7776383949
C       -0.9057088460    0.0853572134    1.8877653544
C        0.0995137377   -2.1437409823    1.3155339237
C        1.1435070982   -0.0708801193    0.4127793729
C        1.1724070929    1.3784095376   -0.0384069466
C        0.5940417464    2.0029460570   -1.0790339959
C        0.0105909343    1.4158227587   -2.3373583349
H       -0.7231464253   -1.4036130578   -1.2465376101
H       -2.0649206138   -1.4511140342   -0.0964215438
H       -1.5381394242    0.0957941738   -0.7577631885
H       -0.2616887473    0.1695795994    2.7712372295
H       -1.1363583106    1.0978730416    1.5413224161
H       -1.8436776635   -0.3874004394    2.2014364788
H        0.7680779095   -2.0981513632    2.1827772119
H       -0.8161887162   -2.6592677266    1.6264373137
H        0.5857499417   -2.7590681212    0.5491880171
H        1.7915072602   -0.1550921963    1.2911962081
H        1.6093381702   -0.7055277958   -0.3567449008
H        1.6022510160    2.0509398024    0.7056099534
H        0.6738269400    3.0908605153   -1.0873010479
H       -1.0663995360    1.6072828012   -2.4215221106
H        0.1695041297    0.3394507565   -2.4110728485
H        0.4800124848    1.8882218944   -3.2091126633
24   
torsion grid (-45,)
C       -1.1092124919   -1.2571595465   -0.5549603165
C       -0.3063138322   -0.7845289479    0.6701242341
C       -1.1185633007    0.2530659982    1.4635949772
C       -0.0683961157   -2.0204779030    1.5659511528
C        1.1079260705   -0.2263945164    0.3129447441
C        1.3339061862    1.2143950222   -0.1203479607
C        0.7087223316    2.0384117858   -0.9775876800
C       -0.4044287536    1.7629831730   -1.9565648799
H       -0.5137366691   -1.9291610625   -1.1839977453
H       -1.9973530868   -1.8104353628   -0.2284928724
H       -1.4562417965   -0.4313636888   -1.1736944750
H       -0.5754166804    0.5756082214    2.3594592317
H       -1.3250721425    1.1448684449    0.8657278500
H       -2.0766202893   -0.1711107572    1.7861394548
H        0.4474666020   -1.7468671372    2.4932794755
H       -1.0178835405   -2.4948298412    1.8381316536
H        0.5435593379   -2.7702707024    1.0501503261
H        1.7298846291   -0.3621374655    1.2038413494
H        1.5467289713   -0.8994614995   -0.4394012723
H        2.1448470411    1.6878704828    0.4342658352
H        1.0983034951    3.0559840215   -1.0114117406
H       -1.3956200356    1.8698532146   -1.4978975277
H       -0.3389121056    0.7589228205   -2.3806530320
H       -0.3596219837    2.4768666734   -2.7851762246
24   
torsion grid (-30,)
C       -1.1080274185   -0.3526344351    1.4686887273
C        0.0495859620   -1.2577234526    1.0013548516
C        1.4167615344   -0.7050695428    1.4412361178
C       -0.1486834378   -2.6314996244    1.6799083942
C        0.0000785074   -1.5044424064   -0.5315912680
C        0.5959459891   -0.5745927700   -1.5772465617
C        0.8283601109    0.7437521064   -1.6982935372
C        0.6240249271    1.9111725526   -0.7714059419
H       -2.0694383132   -0.8564480529    1.3151281958
H       -1.0188899235   -0.1275641172    2.5377865513
H       -1.1548030768    0.5951192821    0.9307461599
H        2.2256125327   -1.3574197175    1.0927575437
H        1.6131787633    0.2937619901    1.0495488205
H        1.4744690384   -0.6556663763    2.5349139678
H        0.6872196426   -3.3060752912    1.4623507841
H       -0.2170398478   -2.5223088680    2.7682766633
H       -1.0701971451   -3.1146724719    1.3342507931
H        0.4955625149   -2.4682550106   -0.7055544575
H       -1.0488217303   -1.6846351484   -0.8122785202
H        0.8540434876   -1.1407583092   -2.4742105705
H        1.2550241700    1.0404705472   -2.6580240407
H       -0.0177102843    2.6605419038   -1.2523784295
H        1.5821759384    2.4069646322   -0.5683889379
H        0.1757467837    1.6519723357    0.1834949724
24   
torsion grid (-15,)
C       -1.1036961439   -0.3394527306    1.4082029472
C        0.0457056882   -1.3073161264    1.0626684015
C        1.4078744710   -0.8014588850    1.5725187857
C       -0.2532307230   -2.6444520603    1.7767746090
C        0.0907237393   -1.6099291178   -0.4532905678
C        0.5551180492   -0.6425071123   -1.5277897233
C        0.7999475970    0.6742023046   -1.6478581257
C        0.7582523683    1.8344968833   -0.6888756945
H       -2.0704839023   -0.8110798567    1.1969305294
H       -1.0879361156   -0.0805066353    2.4732582416
H       -1.0691085521    0.5879145706    0.8359481116
H        2.1901750651   -1.5402255951    1.3629564570
H        1.7160659295    0.1348210573    1.1065546452
H        1.3793318094   -0.6462015795    2.6573313589
H        0.5516190584   -3.3707950351    1.6159790843
H       -0.3557822698   -2.4926615218    2.8572720949
H       -1.1863977571   -3.0896197400    1.4123855794
H        0.7232797357   -2.5003696279   -0.5799008635
H       -0.9121389656   -1.9477281282   -0.7571377289
H        0.6834519069   -1.1876879163   -2.4655768353
H        1.0977151309    0.9816199591   -2.6519281619
H        0.0223369576    2.5742783260   -1.0302174582
H        1.7297107119    2.3450895778   -0.6791097977
H        0.5130091474    1.5706960414    0.3356418726
24   
torsion grid (0,)
C       -1.1369748206   -0.4747255417    1.3680370393
C        0.0435057919   -1.4218221528    1.0782447389
C        1.3827294004   -0.8687469962    1.6027098907
C       -0.2330856038   -2.7455965621    1.8254913319
C        0.1297851855   -1.7655438219   -0.4251902264
C        0.3889416622   -0.7711119902   -1.5422317448
C        0.6077983794    0.5484443053   -1.6810711862
C        0.6979878635    1.7025299729   -0.7174309136
H       -2.0836453345   -0.9573882724    1.0985856966
H       -1.1829285793   -0.2282947202    2.4352018836
H       -1.0830827317    0.4593595395    0.8086257004
H        2.1711610652   -1.6227375736    1.4948836777
H        1.7159459769    0.0216530670    1.0693024732
H        1.3079292691   -0.6177869279    2.6671855099
H        0.5694183585   -3.4730731845    1.6575790808
H       -0.3064025734   -2.5728102733    2.9052080305
H       -1.1742852745   -3.2002187987    1.4955098503
H        0.9009332427   -2.5425591064   -0.5388053805
H       -0.8063772127   -2.2760891939   -0.6976968931
H        0.3939978609   -1.3065523327   -2.4945161171
H        0.7536860259    0.8671214025   -2.7147768555
H       -0.0546400256    2.4598344362   -0.9724673941
H        1.6756116593    2.1923052386   -0.8140485642
H        0.5615606818    1.4388807435    0.3271539114
24   
torsion grid (15,)
C       -1.0775435314   -0.1055594057    1.2356102848
C        0.1337847083   -1.0029700150    0.9214889660
C        1.4399219057   -0.4560634382    1.5315081269
C       -0.1277178582   -2.3830664798    1.5650887033
C        0.2781776279   -1.2390117318   -0.6000803317
C        0.3386174633   -0.1487829656   -1.6554693576
C        0.5353682052    1.1803531398   -1.7081375335
C        0.7530405120    2.2446002629   -0.6652324719
H       -1.9958315618   -0.5543619260    0.8393660358
H       -1.2029470969    0.0065273232    2.3188682247
H       -0.9930659998    0.8911048288    0.8017145159
H        2.2379580773   -1.2027729654    1.4460051668
H        1.7959456041    0.4494235958    1.0395582461
H        1.3086913153   -0.2329672728    2.5967094901
H        0.6751287819   -3.0907773433    1.3277327229
H       -0.1851940463   -2.2975961466    2.6561519542
H       -1.0717980837   -2.8144707184    1.2132140792
H        1.1672475778   -1.8688609305   -0.7582430641
H       -0.5620659759   -1.8807137176   -0.9021586115
H        0.2244289854   -0.6026985370   -2.6424132743
H        0.5363443677    1.5901904577   -2.7197492450
H        0.0009375157    3.0359476693   -0.7776247292
H        1.7302421144    2.7214467071   -0.8170880988
H        0.7115495899    1.8923499283    0.3612051834
24   
torsion grid (30,)
C       -1.0620210575   -0.1195926559    1.1660002491
C        0.1458064648   -1.0379455366    0.9092777678
C        1.4168785699   -0.5168391826    1.6096227615
C       -0.1709739996   -2.4217719794    1.5189117742
C        0.3804067658   -1.2613007244   -0.6100352908
C        0.2575638174   -0.1801367369   -1.6726106860
C        0.4324912291    1.1507693012   -1.7418687067
C        0.8003755802    2.1919288664   -0.7199063566
H       -1.9521529095   -0.5024765735    0.6538438103
H       -1.2862926406   -0.0747986910    2.2381958138
H       -0.8982681430    0.8999338390    0.8147292175
H        2.2074519014   -1.2754577516    1.5748286575
H        1.8202288939    0.3859040617    1.1489911856
H        1.2168867115   -0.2947519290    2.6642552719
H        0.6198823017   -3.1458468576    1.2900233911
H       -0.2582948842   -2.3564539236    2.6094392927
H       -1.1150255852   -2.8201614424    1.1301074421
H        1.3668458477   -1.7333302165   -0.7349254387
H       -0.3313060820   -2.0364466566   -0.9219534218
H        0.0044267969   -0.6310391081   -2.6340248824
H        0.2754716405    1.5754861814   -2.7349098269
H        0.0022809845    2.9410804268   -0.6369014551
H        1.6997430697    2.7308358614   -1.0446064013
H        0.9892627114    1.7968783359    0.2741944047
24   
torsion grid (45,)
C       -1.1696156641   -0.2140087409    1.2222202435
C        0.1407251068   -0.9851724337    0.9892801838
C        1.2967231516   -0.2981605129    1.7379974326
C       -0.0065822130   -2.4053979622    1.5791436561
C        0.4095598503   -1.1729394747   -0.5376091827
C        0.1339781021   -0.0786896373   -1.5581977949
C        0.3824849655    1.2407855948   -1.6000667237
C        1.1800959582    2.1117536852   -0.6627046731
H       -2.0107091357   -0.7085807357    0.7226510904
H       -1.4000894680   -0.1586652270    2.2925733548
H       -1.1105102005    0.8061964914    0.8335049033
H        2.2558537444   -0.7792700056    1.5133488190
H        1.3829328880    0.7600387184    1.4971781962
H        1.1360911856   -0.3702691949    2.8198933608
H        0.8947540568   -3.0035164723    1.3986730934
H       -0.1682623931   -2.3642310429    2.6620922875
H       -0.8557645499   -2.9356543478    1.1334521950
H        1.4509243944   -1.5114990310   -0.6496743696
H       -0.1964109555   -2.0271993905   -0.8569424292
H       -0.4395789262   -0.4480152410   -2.4091603152
H       -0.0095337897    1.7596199483   -2.4749928775
H        1.5619214741    2.9867957990   -1.1981671840
H        2.0365583423    1.5827028235   -0.2397463845
H        0.5731957487    2.4883950599    0.1703857605
24   
torsion grid (60,)
C       -1.3873901622   -0.5932499390    1.0582400001
C        0.0729573403   -0.9656898905    0.7373166737
C        1.0064242418    0.0200983722    1.4508867133
C        0.3610222976   -2.3833502942    1.2713142170
C        0.2645386321   -1.0189127184   -0.8097065897
C       -0.0640901070    0.2048339237   -1.6459451791
C        0.4271714981    1.4561978809   -1.6316274921
C        1.7046072568    1.9707750062   -1.0218106473
H       -2.0857570739   -1.3041566283    0.6007758056
H       -1.5646379244   -0.5993237634    2.1400078777
H       -1.6286684591    0.4058269276    0.6813570244
H        2.0580836948   -0.1686595505    1.2087483983
H        0.7719789552    1.0549238762    1.1980084258
H        0.8931716319   -0.0865108447    2.5360059703
H        1.3956468901   -2.6817115216    1.0642589964
H        0.2107620873   -2.4293800846    2.3558616259
H       -0.3005606807   -3.1257923856    0.8106022050
H        1.3083412741   -1.3187411904   -0.9900477476
H       -0.3453645378   -1.8471984553   -1.1846371291
H       -0.9677768002    0.0847257558   -2.2455682701
H       -0.0930533046    2.1805781036   -2.2598237492
H        2.2873540057    2.4945425729   -1.7896302159
H        2.3257227014    1.1729134597   -0.6132813614
H        1.5167446670    2.6986947021   -0.2227551790
24   
torsion grid (75,)
C       -1.4427088387   -0.8328856254    1.1802391002
C        0.0436240511   -1.0460156284    0.8347857219
C        0.8805031333    0.0249436769    1.5477920352
C        0.4846405767   -2.4362120481    1.3303575931
C        0.2246435182   -1.0238340706   -0.7143113039
C       -0.2107830943    0.2295318587   -1.4407483560
C        0.3968346000    1.4264626129   -1.4968676978
C        1.7954914214    1.7754816595   -1.0621698350
H       -2.0732923461   -1.5881869514    0.6961394831
H       -1.6068108409   -0.9035260593    2.2617070819
H       -1.7856266204    0.1537737030    0.8521333003
H        1.9490543450   -0.0910698692    1.3371100888
H        0.5784047548    1.0322570005    1.2522134391
H        0.7457358140   -0.0584255954    2.6324212799
H        1.5394257199   -2.6232883972    1.0966606411
H        0.3628732560   -2.5212371332    2.4162425227
H       -0.1082836367   -3.2315230489    0.8641024465
H        1.2853105634   -1.2231581448   -0.9220034947
H       -0.3275253735   -1.8761305217   -1.1259116401
H       -1.2146203604    0.1873261284   -1.8649250821
H       -0.1419457183    2.2296233627   -2.0011303060
H        2.3382683356    2.2436575911   -1.8925679276
H        2.3617677114    0.9009330148   -0.7368034660
H        1.7952366691    2.4997446834   -0.2381992677
24   
torsion grid (90,)
C       -1.4708206160   -0.6819419540    1.0624958757
C        0.0317173205   -0.9009211684    0.8075195965
C        0.8392631382    0.1410320481    1.5981063542
C        0.4269843532   -2.3118913842    1.2794645908
C        0.3337147076   -0.8036151799   -0.7178480843
C       -0.0762300051    0.4875984935   -1.3821957992
C        0.6570799723    1.6028849331   -1.5271209257
C        2.0981268594    1.8083634421   -1.1438673659
H       -2.0772736872   -1.3962446841    0.4927256088
H       -1.7079158470   -0.8147266547    2.1243528058
H       -1.7797895899    0.3282490644    0.7752948122
H        1.9169093110   -0.0036963066    1.4615534775
H        0.5908214144    1.1588781095    1.2846299111
H        0.6252392816    0.0567415519    2.6698181955
H        1.4911889907   -2.5054355977    1.1003026591
H        0.2417635385   -2.4325564130    2.3530284943
H       -0.1474128829   -3.0824013727    0.7520926254
H        1.4066315788   -0.9799666927   -0.8605970625
H       -0.1817377817   -1.6342386534   -1.2160346407
H       -1.1086512237    0.5311484281   -1.7291333024
H        0.1761471455    2.4599556865   -2.0001297519
H        2.6722843666    2.1880676249   -1.9978471562
H        2.5751003849    0.8907892825   -0.7937010867
H        2.1890959837    2.5550623263   -0.3447542853
24   
torsion grid (105,)
C       -1.6429808185   -0.7981824581    0.9036930357
C       -0.1239441948   -0.9423013712    0.7023053746
C        0.6090559074    0.1319889558    1.5241573708
C        0.3198974776   -2.3377936865    1.1756386276
C        0.2437641742   -0.8014318493   -0.8030509722
C       -0.2069779283    0.4797998632   -1.4547965533
C        0.5511291016    1.5363974407   -1.7870396711
C        2.0314604989    1.7061496277   -1.5738127130
H       -2.1946349608   -1.5193396591    0.2886209550
H       -1.9122063038   -0.9779036986    1.9508236231
H       -1.9896108261    0.2060982894    0.6404328258
H        1.6961878545    0.0291244932    1.4261969100
H        0.3360388748    1.1387047012    1.1931146315
H        0.3598261188    0.0445201822    2.5879685641
H        1.3973971986   -2.4804786030    1.0320130182
H        0.1035775479   -2.4783080537    2.2409682573
H       -0.1998064786   -3.1281441833    0.6213644897
H        1.3270191012   -0.9250038861   -0.9040972304
H       -0.2133857997   -1.6431867243   -1.3409913945
H       -1.2715291170    0.5446060752   -1.6790232247
H        0.0515790248    2.3834937825   -2.2589355429
H        2.5391802358    1.9244438201   -2.5215230982
H        2.4999870634    0.8238014535   -1.1331090416
H        2.2291327263    2.5552414369   -0.9071632231
24   
torsion grid (120,)
C       -1.7140014245   -0.8844763934    0.9158914840
C       -0.1838289645   -0.9494807851    0.7613915298
C        0.4722203926    0.1189770372    1.6533243268
C        0.3054759374   -2.3443562481    1.1903323472
C        0.2342217169   -0.7258101911   -0.7190415438
C       -0.2109802231    0.5789110118   -1.3240424491
C        0.5611979456    1.5523602290   -1.8314602213
C        2.0648872357    1.6079224830   -1.8774830403
H       -2.2109785837   -1.5933399459    0.2427835682
H       -2.0077529845   -1.1362711947    1.9412922447
H       -2.1020689542    0.1158611757    0.7002325048
H        1.5654353702    0.0728383243    1.5818431022
H        0.1616429501    1.1261510595    1.3578313261
H        0.1987752084   -0.0276733543    2.7046029008
H        1.3931264864   -2.4321285108    1.0844247745
H        0.0549555531   -2.5434152723    2.2386553265
H       -0.1552142065   -3.1307260996    0.5808475189
H        1.3210111635   -0.8330741403   -0.7902613581
H       -0.1948085799   -1.5448177091   -1.3146141546
H       -1.2893413694    0.7241752402   -1.3841027266
H        0.0555330028    2.4204003222   -2.2566407302
H        2.4203230672    1.6778528070   -2.9132973152
H        2.5373855756    0.7371235969   -1.4181776088
H        2.4323654444    2.5017280167   -1.3578250938
24   
torsion grid (135,)
C       -1.7204383104   -1.0624485019    0.9104477150
C       -0.1824025714   -1.0177908440    0.8524598286
C        0.3459048967    0.0085862015    1.8700037747
C        0.3685324992   -2.4124642599    1.2007957721
C        0.3111802484   -0.6482637314   -0.5727476786
C       -0.1203930057    0.7040837126   -1.0770078469
C        0.6331270981    1.6225995156   -1.7010407489
C        2.1057121759    1.5561643741   -2.0075114815
H       -2.1252514086   -1.7475180614    0.1561179037
H       -2.0571310939   -1.4113951015    1.8932741302
H       -2.1666385236   -0.0768915988    0.7453018684
H        1.4417104861    0.0436346684    1.8589066430
H       -0.0195207820    1.0156810917    1.6447667853
H        0.0282294938   -0.2491676435    2.8869394467
H        1.4644074610   -2.4232267270    1.1736258293
H        0.0563408391   -2.7186752662    2.2058124697
H        0.0082277978   -3.1688068839    0.4934813252
H        1.4023163669   -0.7333316123   -0.5936941721
H       -0.0679424696   -1.4145514618   -1.2656448276
H       -1.1793327119    0.9341032915   -0.9636149969
H        0.1355589174    2.5357909221   -2.0302445888
H        2.2770471541    1.5763528215   -3.0913623421
H        2.5831541386    0.6568627472   -1.6123151226
H        2.6270337842    2.4269126566   -1.5907435520
24   
torsion grid (150,)
C       -1.7041647228   -1.1484902700    0.9858280685
C       -0.1708798222   -1.0045192820    0.9951017591
C        0.2531780317   -0.0098364951    2.0905105476
C        0.4523310921   -2.3811035897    1.2903504518
C        0.3502234028   -0.5269883898   -0.3851676145
C       -0.1171116625    0.8414005165   -0.8185417844
C        0.5420697607    1.7091354134   -1.6008749191
C        1.9139275936    1.5420388974   -2.1981853594
H       -2.0316480347   -1.8278137732    0.1900821884
H       -2.0570592557   -1.5560456930    1.9399869840
H       -2.2088015475   -0.1889364591    0.8363467336
H        1.3439026202    0.0954426129    2.1233192404
H       -0.1692831009    0.9846733198    1.9142046443
H       -0.0819636223   -0.3490680328    3.0774762095
H        1.5467334861   -2.3229346496    1.3153980753
H        0.1158815545   -2.7652049670    2.2601525658
H        0.1729517681   -3.1146945209    0.5248861322
H        1.4451009237   -0.5636620929   -0.3723421220
H        0.0320779137   -1.2649055613   -1.1369913598
H       -1.1183665628    1.1296359183   -0.5012111091
H        0.0406636961    2.6465216934   -1.8445959434
H        1.8592220955    1.5301375559   -3.2943498727
H        2.4040589773    0.6184501786   -1.8817597306
H        2.5633113921    2.3831684311   -1.9252359961
24   
torsion grid (165,)
C       -1.7006823955   -1.1491551130    0.8412668442
C       -0.1783520204   -0.9873346021    1.0095723334
C        0.1214014136   -0.0486720970    2.1926367216
C        0.4370644317   -2.3695249242    1.2959047322
C        0.4620608537   -0.4354590389   -0.2879852681
C        0.0064023515    0.9451928484   -0.7073047922
C        0.6055535455    1.7366680045   -1.6085430443
C        1.8618065542    1.4298681082   -2.3793127845
H       -1.9348026903   -1.8036447342   -0.0064522216
H       -2.1426259254   -1.5937805294    1.7401991714
H       -2.2016915452   -0.1911237889    0.6707506226
H        1.2019060325    0.0704591680    2.3341111663
H       -0.3034921914    0.9482009305    2.0373257270
H       -0.2973739106   -0.4491268846    3.1230285029
H        1.5227304168   -2.2990874747    1.4305595061
H        0.0148618320   -2.8066513445    2.2079739368
H        0.2459047224   -3.0665270859    0.4715014875
H        1.5518484216   -0.4419409512   -0.1623269620
H        0.2508582609   -1.1474163592   -1.0991833688
H       -0.9119052950    1.3170299273   -0.2559458231
H        0.1471467476    2.7030317021   -1.8207784492
H        1.6598295890    1.4102893406   -3.4579705255
H        2.2967640881    0.4657005068   -2.1054291527
H        2.6211606116    2.2049887154   -2.2160792154
24   
torsion grid (180,)
C       -1.6981880953   -0.8947645874    0.6172523726
C       -0.1981974022   -0.7452146415    0.9320612698
C       -0.0091307700    0.1430433804    2.1757162119
C        0.3913940843   -2.1381155032    1.2205893681
C        0.5537574617   -0.1469717594   -0.2812758295
C        0.1065601762    1.2334182344   -0.7160923223
C        0.6165430971    1.9364614811   -1.7370159109
C        1.7295060070    1.4977634317   -2.6508593599
H       -1.8524066867   -1.5249699824   -0.2663534077
H       -2.2257358144   -1.3600731917    1.4577295814
H       -2.1747481142    0.0712543801    0.4227910503
H        1.0540285474    0.2602305386    2.4158454278
H       -0.4289981699    1.1437239555    2.0326509263
H       -0.5032643161   -0.3009492479    3.0474527322
H        1.4610987171   -2.0748700959    1.4520825238
H       -0.1084659195   -2.6073775744    2.0756580188
H        0.2737669721   -2.8041210771    0.3577706681
H        1.6255923486   -0.1243671970   -0.0413602236
H        0.4528942604   -0.8451317918   -1.1234795770
H       -0.7000854615    1.6945833105   -0.1491449478
H        0.1972919142    2.9223969046   -1.9394006935
H        1.3924264033    1.4766558595   -3.6950694898
H        2.1077470086    0.5038775755   -2.3995685458
H        2.5713536404    2.2004714709   -2.6067508295
