22   
torsion grid (-165,)
C       -2.5740925560    2.8464598468    2.3961432952
C       -1.8696780791    3.9077927787    1.8224789489
C       -1.8810768533    1.6812311612    2.7354503397
C       -0.4953060989    3.7630077553    1.6038272589
C       -0.5092897121    1.6632163693    2.4850903048
C        0.6267354047   -0.4902569665    0.3594548923
C        2.6351658224    0.5637485617    1.3697469818
N        0.1833540522    2.6553234622    1.9305447295
N        1.3807442909   -0.1731014535    1.5749202300
O        1.3948748597    0.5538120401    3.9965132576
O       -0.5089137889   -0.8920251258    3.1045955247
S        0.4668241834    0.1872867515    2.9280866330
H       -3.6434303084    2.9215170347    2.5743718954
H       -2.3699965242    4.8302654167    1.5430338280
H       -2.3675697243    0.8159430578    3.1723794156
H        0.0831075501    4.5650158607    1.1493081225
H       -0.2412155260   -1.0994378984    0.6135338958
H        0.3038246556    0.4156492686   -0.1737491011
H        1.2747964461   -1.0746844593   -0.2998426585
H        3.0815670190    0.7922638883    2.3361342657
H        3.3158072130   -0.0870142666    0.8117110856
H        2.4733162287    1.4948212740    0.8139607576
22   
torsion grid (-150,)
C       -2.6270046117    2.8408507192    2.4591494723
C       -1.9680302871    3.8800570325    1.7975927273
C       -1.9086012613    1.6891803785    2.7917664011
C       -0.6123184880    3.7274711884    1.4865196937
C       -0.5590760939    1.6617282470    2.4427069206
C        0.6227869127   -0.3406196576    0.2703307311
C        2.7222274876    0.4067980383    1.4037409533
N        0.0899210607    2.6313752437    1.8026957613
N        1.3540080962   -0.1029048846    1.5122422328
O        1.3929102928    0.6094787711    3.9315594798
O       -0.4779735021   -0.8930035258    3.0903843417
S        0.4583989246    0.2141370614    2.8768826324
H       -3.6812587334    2.9224821633    2.7095975886
H       -2.4897511998    4.7911695139    1.5200287044
H       -2.3608308520    0.8410120680    3.2944773310
H       -0.0698935859    4.5121559831    0.9627303878
H       -0.3306785216   -0.8241615321    0.4895038237
H        0.4457012421    0.5924884551   -0.2822872011
H        1.2086981722   -1.0207775790   -0.3554411185
H        3.1397832095    0.5370906409    2.4003956056
H        3.3192351192   -0.3352634023    0.8636383496
H        2.7534389637    1.3647004675    0.8689626514
22   
torsion grid (-135,)
C       -2.6727891771    2.8347583642    2.5003621694
C       -2.0619398136    3.8911909123    1.8204141882
C       -1.9124935184    1.7045217085    2.8129545149
C       -0.7111734861    3.7762954402    1.4728897396
C       -0.5734193860    1.7133273036    2.4236758432
C        0.6592358497   -0.2711521873    0.2292668568
C        2.8039116732    0.2821718420    1.4090248248
N        0.0298638293    2.7002513286    1.7677704876
N        1.3662566453    0.0375334635    1.4658812867
O        1.4308045480    0.7106109032    3.8867287479
O       -0.4164980540   -0.8338520472    3.0779723933
S        0.4912370798    0.2945400157    2.8434024234
H       -3.7214487526    2.8865910880    2.7805022451
H       -2.6165139767    4.7869829342    1.5569028041
H       -2.3265527026    0.8450555596    3.3290124450
H       -0.2050735767    4.5763126585    0.9360349404
H       -0.3579379416   -0.5993868904    0.4504929181
H        0.6212864972    0.6041902620   -0.4323919206
H        1.1680396287   -1.0926990683   -0.2866039078
H        3.1715856914    0.5180171257    2.4062816344
H        3.3108534240   -0.6189577177    1.0453701172
H        3.0259992882    1.1224261698    0.7388917995
22   
torsion grid (-120,)
C       -2.7499923898    2.7658590123    2.3659129126
C       -2.1626711875    3.9828805935    2.0170180953
C       -1.9247427832    1.6595515129    2.5942853708
C       -0.7674110191    4.0504819512    1.9079888742
C       -0.5516965598    1.8542946881    2.4528210212
C        0.6748894717   -0.5407850699    0.2976334715
C        2.8148958732    0.2790739407    1.2731730555
N        0.0330288954    3.0006432992    2.1208773641
N        1.3487070027    0.3049721021    1.2858608265
O        1.5765468373    0.8769925682    3.7502162707
O       -0.2878804099   -0.7049521135    3.0100052209
S        0.5776233577    0.4583219053    2.7671227360
H       -3.8286608654    2.6755266044    2.4616768604
H       -2.7657107826    4.8670053594    1.8320787113
H       -2.3133949423    0.6863481950    2.8730949660
H       -0.2757986331    4.9835716829    1.6391691551
H       -0.3979254042   -0.3380687494    0.2947034129
H        1.0718261259   -0.2861661770   -0.6892410501
H        0.8275421768   -1.6107139804    0.4880145326
H        3.1978866520    0.9553806879    2.0355854564
H        3.2129289632   -0.7288931807    1.4531096969
H        3.1476699495    0.6263781346    0.2904121672
22   
torsion grid (-105,)
C       -2.7706254752    2.7054238508    2.3638834181
C       -2.2403643787    3.9435498710    1.9982465804
C       -1.8947095600    1.6407833025    2.6008496654
C       -0.8500626289    4.0735585279    1.8827431049
C       -0.5324934417    1.8964940488    2.4504664365
C        0.6426313989   -0.3433587278    0.2969295761
C        2.8516551303    0.1154720770    1.3248999777
N       -0.0014492538    3.0640228515    2.1044953882
N        1.4129763547    0.4119786515    1.2904778969
O        1.6561502888    1.0247450475    3.7464918823
O       -0.1599838196   -0.6358944511    3.0842122679
S        0.6542211868    0.5544127452    2.7902201633
H       -3.8436350953    2.5671617972    2.4654341761
H       -2.8837678228    4.7970988152    1.8057226636
H       -2.2369782853    0.6539337827    2.8923418053
H       -0.4024180253    5.0249967285    1.6018698407
H       -0.3867538974    0.0214750500    0.2630932929
H        1.0951194316   -0.1649343073   -0.6823401696
H        0.6280506214   -1.4210579189    0.5039508076
H        3.3299578554    0.7304971698    2.0858782513
H        3.0575821962   -0.9441615358    1.5304838010
H        3.2648082260    0.3765519897    0.3464629736
22   
torsion grid (-90,)
C       -2.7757471511    2.6645411483    2.3790744987
C       -2.3046843696    3.9143242330    1.9735087601
C       -1.8524227008    1.6410313299    2.6156970059
C       -0.9243381587    4.0975619282    1.8195089161
C       -0.5058287555    1.9491195690    2.4267128560
C        0.6461155254   -0.1292960336    0.2688586095
C        2.8537172920   -0.0408828806    1.3557202327
N       -0.0300203802    3.1284056115    2.0437732827
N        1.4942143395    0.5201986275    1.2770143836
O        1.7336094513    1.1907537877    3.7200348370
O       -0.0165662132   -0.5538638543    3.1292122688
S        0.7372025967    0.6649498053    2.7873558388
H       -3.8394804655    2.4860962825    2.5107028735
H       -2.9866944687    4.7370292963    1.7795818525
H       -2.1467388836    0.6470857835    2.9344286349
H       -0.5225660343    5.0592551655    1.5062862174
H       -0.3250655631    0.3687409991    0.2179105105
H        1.1344060652   -0.0106405198   -0.7020633708
H        0.4890576627   -1.1967122977    0.4723932920
H        3.4160362275    0.4822258517    2.1286207376
H        2.8526238843   -1.1193126848    1.5667528094
H        3.3355023773    0.1336811103    0.3898874260
22   
torsion grid (-75,)
C       -2.7832182043    2.5863081071    2.4147563683
C       -2.3696675005    3.8359162933    1.9494509158
C       -1.8174111393    1.6035680414    2.6530432323
C       -1.0028897653    4.0604131058    1.7404963141
C       -0.4895742307    1.9516609929    2.4092901410
C        0.6849025747    0.0720477453    0.2284768746
C        2.8105768770   -0.2319813385    1.3968048496
N       -0.0673685003    3.1316323407    1.9700362334
N        1.5832646424    0.5801041281    1.2777140703
O        1.7767801479    1.3009278585    3.7157485076
O        0.1134960552   -0.5248617708    3.1536099562
S        0.8040958394    0.7251395856    2.7873980324
H       -3.8350865127    2.3768714442    2.5890091897
H       -3.0863268924    4.6274658997    1.7509431060
H       -2.0656777360    0.6103980896    3.0111664234
H       -0.6459815836    5.0224895124    1.3781632729
H       -0.1933255559    0.7148502497    0.1400619578
H        1.2278959118    0.1173381885   -0.7191201280
H        0.3603070868   -0.9613088096    0.4119592310
H        3.4313413876    0.1667240202    2.1996409155
H        2.5957183723   -1.2926015605    1.5858976717
H        3.3561903255   -0.1381773718    0.4543600412
22   
torsion grid (-60,)
C       -2.4014293951    2.7134272853    1.4929079360
C       -1.8541858993    3.9219162789    1.9308472844
C       -1.7060658650    1.5280014917    1.7433599292
C       -0.6276084265    3.9009230482    2.6028805519
C       -0.4933758488    1.6369597432    2.4250064366
C        2.4812091927    1.0816359042    1.4899836750
C        2.1546610763   -1.3286306018    1.4924662499
N        0.0494380771    2.7717044259    2.8515370136
N        1.4840044652   -0.0089157026    1.4941505922
O        1.1108448970    0.2479487325    4.0913487817
O       -0.5719636175   -0.9912860600    2.6296878903
S        0.3999094842    0.0931150677    2.8193001611
H       -3.3535843829    2.6910968186    0.9698819006
H       -2.3642751793    4.8654881028    1.7604802278
H       -2.0806082154    0.5555048855    1.4447437858
H       -0.1711596274    4.8223350130    2.9588749517
H        1.9858371170    2.0516565775    1.4834429073
H        3.1564112516    1.0337720762    2.3542644034
H        3.0630698696    0.9818553756    0.5698071008
H        1.4044692619   -2.1194110406    1.5280370765
H        2.7062408250   -1.4110086193    0.5525262872
H        2.8538635125   -1.4424386526    2.3314878187
22   
torsion grid (-45,)
C       -2.5016377490    2.6756234671    1.5688715325
C       -1.9108520490    3.9136117630    1.8331762308
C       -1.7878127702    1.5105399935    1.8597171386
C       -0.6245698121    3.9408366140    2.3815845111
C       -0.5153788135    1.6679313822    2.4099638935
C        2.6466207413    1.0717646059    1.7221121192
C        2.0427347554   -1.2684454772    1.3253866300
N        0.0684905899    2.8322161912    2.6741167231
N        1.5446670798    0.1011771553    1.5653550535
O        1.0765071439    0.3642986299    4.1397457817
O       -0.5023462715   -0.9629669372    2.6406237320
S        0.4182620049    0.1625936506    2.8461476215
H       -3.5005559912    2.6153915612    1.1454889003
H       -2.4321920204    4.8430233306    1.6238271410
H       -2.1888290384    0.5186211963    1.6850328327
H       -0.1322646548    4.8863111145    2.6002701544
H        2.2467342885    2.0671675147    1.9132875193
H        3.3245492303    0.7977087180    2.5404585905
H        3.2016009326    1.0884831995    0.7800174021
H        1.2008227124   -1.9530388698    1.2260487596
H        2.5977098689   -1.2489127726    0.3837198477
H        2.7094672261   -1.6181112192    2.1253849280
22   
torsion grid (-30,)
C       -2.5681346635    2.6216405798    1.6057196331
C       -1.9564523711    3.8711947490    1.7295964229
C       -1.8403223622    1.4765928492    1.9402958155
C       -0.6358315002    3.9304579869    2.1875908218
C       -0.5343116390    1.6666706364    2.3909569725
C        2.7731400487    1.0369514470    1.9047277226
C        1.9601052105   -1.1725175110    1.1595678533
N        0.0708899807    2.8431646850    2.5217237789
N        1.6077221153    0.1734100615    1.6421973994
O        1.0487428570    0.4628652210    4.1772359109
O       -0.4303443149   -0.9621490402    2.6645022697
S        0.4381202076    0.2036894725    2.8711453217
H       -3.5933293346    2.5370144236    1.2555612259
H       -2.4869695688    4.7855439585    1.4808515980
H       -2.2537621556    0.4768995812    1.8678270380
H       -0.1266515895    4.8861492033    2.2953706261
H        2.4388245037    2.0224064242    2.2279759257
H        3.4368056188    0.6126285179    2.6685734528
H        3.3214061020    1.1423642979    0.9642196879
H        1.0540593072   -1.7499283139    0.9810844087
H        2.4961316104   -1.0476045682    0.2146108055
H        2.6033091902   -1.7162067423    1.8651531653
22   
torsion grid (-15,)
C       -2.5996219596    2.6413089244    1.5795216822
C       -1.9930004823    3.8989541367    1.5701757782
C       -1.8520061065    1.5331501737    1.9891413096
C       -0.6566947514    4.0037838894    1.9738444818
C       -0.5327697243    1.7681270549    2.3729223467
C        2.8980742325    1.1066801817    2.0625894037
C        1.9172783560   -0.9568012346    1.0831204702
N        0.0696748864    2.9538458679    2.3752188497
N        1.6892739212    0.3253447635    1.7618437439
O        1.0564127824    0.7266778842    4.2353422849
O       -0.3371677584   -0.8384825484    2.7748123000
S        0.4835690181    0.3681145314    2.9368359196
H       -3.6356927421    2.5216598341    1.2743924999
H       -2.5380286909    4.7853411730    1.2593403717
H       -2.2604150833    0.5290820675    2.0196309823
H       -0.1512420007    4.9675652507    1.9776158887
H        2.6190854806    2.0728072144    2.4813812752
H        3.5615352249    0.5855066473    2.7642045231
H        3.4267668257    1.2743651202    1.1196823804
H        0.9653539856   -1.4466685142    0.8837015976
H        2.4155794467   -0.7439766846    0.1327622799
H        2.5488857469   -1.6337388037    1.6744503463
22   
torsion grid (0,)
C       -2.6163357939    2.6466074692    1.5845288307
C       -1.9750735484    3.8807938732    1.4634261667
C       -1.8839201825    1.5463375009    2.0415695759
C       -0.6199901570    3.9710009416    1.8050510053
C       -0.5431802272    1.7647356275    2.3532525096
C        2.9582947127    0.9780681786    2.1530003402
C        1.7778164870   -0.8711823311    0.9639944342
N        0.0925575994    2.9282765181    2.2465059265
N        1.6986475988    0.2919377161    1.8498738881
O        1.0206992020    0.7895715847    4.2622525952
O       -0.3625275980   -0.8232699758    2.8360243669
S        0.4657358492    0.3812272715    2.9716068432
H       -3.6670792338    2.5385704704    1.3291797098
H       -2.5068340794    4.7602832594    1.1125598473
H       -2.3194417050    0.5600006111    2.1573464613
H       -0.0877091251    4.9166182741    1.7213304191
H        2.7632667870    1.8685564011    2.7478900444
H        3.6533990407    0.3263504924    2.6979692685
H        3.4156169092    1.2837705391    1.2067142994
H        0.7835646876   -1.2830002493    0.7965580526
H        2.1965241214   -0.5471222794    0.0057352081
H        2.4162602502   -1.6587695549    1.3861738913
22   
torsion grid (15,)
C       -2.5039987810    2.6305239323    1.5437240020
C       -1.8129966475    3.8354819592    1.3972613366
C       -1.8243882051    1.5179964059    2.0478782199
C       -0.4619941203    3.8828573316    1.7592785059
C       -0.4816969469    1.6929747174    2.3832679623
C        2.8876740974    1.0629326102    2.1414428296
C        1.7661688996   -0.8419109556    0.9571508002
N        0.2010413494    2.8275193436    2.2481037635
N        1.7682757587    0.1260144381    2.0507307709
O        0.9490942713    0.6875135424    4.3761511753
O       -0.3917543794   -0.8875140295    2.8608843952
S        0.4644714885    0.2876079623    3.0567989114
H       -3.5532600232    2.5553727392    1.2709230422
H       -2.3037311246    4.7234850529    1.0099489358
H       -2.2997163294    0.5525954782    2.1816788871
H        0.1098050058    4.8028458306    1.6532665664
H        2.8197010563    1.6301242617    3.0681782683
H        3.8260888650    0.4967103123    2.1436716948
H        2.8842102953    1.7613544969    1.2961500414
H        0.9150015935   -1.5131429764    1.0607937548
H        1.7175635208   -0.3377822799   -0.0174829136
H        2.6864897129   -1.4347451315    1.0044183982
22   
torsion grid (30,)
C       -2.4617962378    2.5569732384    1.4898627806
C       -1.7718536366    3.7604465932    1.3290455212
C       -1.7964852163    1.4672434400    2.0593042570
C       -0.4360824255    3.8288208034    1.7414463062
C       -0.4699173632    1.6623196475    2.4435881069
C        2.8656167083    1.0404955920    2.2358606097
C        1.6288594781   -0.7387768579    0.9963243144
N        0.2127590413    2.7960274498    2.2931780396
N        1.7853775219    0.0505658785    2.2180873415
O        0.9442104056    0.7288583263    4.4980751178
O       -0.4053336561   -0.8910625395    3.0407411251
S        0.4591744825    0.2834799987    3.1951077476
H       -3.4989513556    2.4651974391    1.1786210948
H       -2.2512272604    4.6312110327    0.8915763116
H       -2.2718985679    0.5042758965    2.2093921293
H        0.1347040365    4.7481878990    1.6250127483
H        2.8897291506    1.5358049083    3.2054293721
H        3.8138003109    0.5140398930    2.0849230295
H        2.7355711301    1.7954430404    1.4510512745
H        0.8779674814   -1.5119348453    1.1521393234
H        1.3451243605   -0.1158985453    0.1351972602
H        2.5873131588   -1.2202308345    0.7799244206
22   
torsion grid (45,)
C       -2.4479728880    2.5055693240    1.5166216586
C       -1.7504773177    3.6884210460    1.2608085713
C       -1.7738854995    1.4417107245    2.1227692222
C       -0.3990422406    3.7629672044    1.6161329142
C       -0.4318054068    1.6418923237    2.4458461918
C        2.9483731446    0.9903574522    2.3460288242
C        1.5651961814   -0.5305548669    0.9536852194
N        0.2579722827    2.7545093617    2.2032949514
N        1.8390343823    0.0294926329    2.2800638530
O        1.0001132380    0.7981265486    4.5373208139
O       -0.3500058215   -0.8829905054    3.1625778506
S        0.5070954628    0.3026267447    3.2546463267
H       -3.4970254416    2.4104691560    1.2494471356
H       -2.2367687520    4.5390533904    0.7924838802
H       -2.2521374449    0.4936569707    2.3429805058
H        0.1778403920    4.6654695303    1.4233789986
H        3.0352411779    1.3722514107    3.3620877170
H        3.8683392937    0.4555303031    2.0897113987
H        2.8038193427    1.8290850255    1.6548420014
H        0.7911928312   -1.2938314514    1.0298916380
H        1.2573823156    0.2414428408    0.2326866871
H        2.4828606706   -1.0018676170    0.5906265555
22   
torsion grid (60,)
C       -2.5169180405    2.4565930018    1.5394956070
C       -1.7938561287    3.5940832014    1.1726068194
C       -1.8456851596    1.4028331273    2.1661078029
C       -0.4212263579    3.6350126962    1.4416407248
C       -0.4807589643    1.5688144592    2.3968137997
C        2.9680943206    0.8179223403    2.4721601235
C        1.4888206542   -0.3346307793    0.8694612133
N        0.2337509510    2.6365985370    2.0484582303
N        1.7969164325   -0.0530472452    2.2766579221
O        0.9424142040    0.7746121966    4.5166981325
O       -0.3992731427   -0.9403695384    3.1963623849
S        0.4534711392    0.2502968790    3.2422780750
H       -3.5830480834    2.3881442627    1.3407197297
H       -2.2766656805    4.4346649286    0.6830531647
H       -2.3424661015    0.4870798815    2.4677386627
H        0.1752106991    4.5006290726    1.1601046705
H        3.0845438580    1.0348847512    3.5325749926
H        3.8474477646    0.2662440208    2.1258049667
H        2.8770927172    1.7575128887    1.9144922968
H        0.6323137645   -1.0077662890    0.8071708892
H        1.2859777260    0.5822780745    0.2984215079
H        2.3520395692   -0.8410894980    0.4288086036
22   
torsion grid (75,)
C       -2.5268697181    2.4044213077    1.5327752125
C       -1.8295650316    3.5391893192    1.1120412976
C       -1.8276223876    1.3881641513    2.1904996737
C       -0.4540918768    3.6156920668    1.3599204231
C       -0.4633760298    1.5883676940    2.3931956640
C        3.0534080110    0.6878056923    2.5384238157
C        1.4756041289   -0.1370476239    0.8564059217
N        0.2279388629    2.6537145285    1.9946239997
N        1.8095542418   -0.0641763007    2.2860652352
O        1.0520433394    0.9507758364    4.4985475826
O       -0.3472175240   -0.8565383911    3.4004561583
S        0.5028977659    0.3312660899    3.2915756047
H       -3.5943249801    2.3097158695    1.3529101894
H       -2.3344636487    4.3514960030    0.5976552260
H       -2.3030164365    0.4776924000    2.5392441454
H        0.1218876852    4.4808121583    1.0375383295
H        3.2336482616    0.7489844151    3.6097157599
H        3.8683572022    0.1245911156    2.0739450478
H        3.0177477766    1.6993500972    2.1150260167
H        0.5281366179   -0.6637268293    0.7213034468
H        1.4176592035    0.8557942796    0.3921660880
H        2.2542033393   -0.7206969174    0.3571598599
22   
torsion grid (90,)
C       -2.5853345120    2.3472548709    1.4772380209
C       -1.9236124731    3.4929705104    1.0300107131
C       -1.8544622163    1.3686560075    2.1575568092
C       -0.5510702342    3.6189075381    1.2754633911
C       -0.4966246443    1.6153721403    2.3511534576
C        3.0823594374    0.4404537335    2.5929764991
C        1.4646026252    0.0334836977    0.8121606483
N        0.1607675519    2.6928602845    1.9301775490
N        1.7503884036   -0.0941384164    2.2490095728
O        1.1225856483    1.1211466865    4.4179030721
O       -0.3611945396   -0.7394853634    3.5609753713
S        0.4993838556    0.4157956253    3.2952257050
H       -3.6497154377    2.2160373540    1.3022828072
H       -2.4540348315    4.2776853950    0.4987470603
H       -2.3015476482    0.4546504615    2.5334159460
H       -0.0030927733    4.4952936142    0.9352585423
H        3.2663682197    0.3257248003    3.6591637967
H        3.8149330420   -0.1573707130    2.0427854331
H        3.1922946954    1.4975702984    2.3187648755
H        0.4584364175   -0.3321506359    0.5928180067
H        1.5655826325    1.0653915598    0.4542123205
H        2.1702181499   -0.6063376083    0.2746038025
22   
torsion grid (105,)
C       -2.6496363152    2.2835251011    1.4397955600
C       -2.0440906562    3.4466388909    0.9596242043
C       -1.8712673610    1.3582027818    2.1418035458
C       -0.6782974893    3.6438870415    1.1969925847
C       -0.5249425626    1.6724622634    2.3188592450
C        3.0739643398    0.1559411676    2.6596574576
C        1.5051564405    0.2241043790    0.7860030885
N        0.0787358249    2.7692672415    1.8706509516
N        1.6889420773   -0.0785340525    2.2122704540
O        1.2187272425    1.3281048175    4.3228935840
O       -0.3440832877   -0.5662458832    3.7212345790
S        0.5172381697    0.5432501423    3.3023278564
H       -3.7076291314    2.0986696722    1.2749688857
H       -2.6128101108    4.1918936426    0.4113766404
H       -2.2745467829    0.4369916654    2.5481015041
H       -0.1740129028    4.5375781643    0.8349360131
H        3.1858549026   -0.1290593319    3.7047608493
H        3.7162432216   -0.4891561382    2.0532568767
H        3.3851605498    1.2017994276    2.5406878906
H        0.4755332483    0.0221585149    0.4825543948
H        1.7609579846    1.2606504968    0.5331926962
H        2.1507810921   -0.4562325296    0.2232810329
22   
torsion grid (120,)
C       -2.6984065817    2.2066492121    1.4143343160
C       -2.1563545574    3.3893085102    0.9073573790
C       -1.8719025390    1.3428481768    2.1395886468
C       -0.8042383716    3.6676739276    1.1430757509
C       -0.5443180266    1.7330807198    2.3079718038
C        2.9885693936   -0.1421206395    2.7302211189
C        1.5687337689    0.3961431564    0.7996520068
N       -0.0019419589    2.8515412342    1.8368452117
N        1.6185628302   -0.0553027131    2.1967038060
O        1.3210945968    1.5327533609    4.2307295406
O       -0.3046774049   -0.3766030505    3.8815320604
S        0.5471548321    0.6788875670    3.3233716680
H       -3.7443824952    1.9602159540    1.2534674799
H       -2.7638368039    4.0892704170    0.3412297277
H       -2.2265516028    0.4133600171    2.5712147290
H       -0.3495640306    4.5804348241    0.7632523304
H        2.9712625220   -0.5466498170    3.7428622064
H        3.5386945797   -0.8394411492    2.0922945416
H        3.4997464321    0.8290480561    2.7454826384
H        0.5477855568    0.3441934702    0.4177203922
H        1.9576546584    1.4126143319    0.6562835973
H        2.1724778516   -0.3061428099    0.2178490048
22   
torsion grid (135,)
C       -2.2809789207    3.0070072017    1.8566412736
C       -1.5379908294    4.1718130454    2.0577751452
C       -1.6786597296    1.7705621193    2.1079703698
C       -0.2153554855    4.0571633640    2.5017540987
C       -0.3549851523    1.7859594914    2.5499471637
C        0.9087874916   -1.2800579334    0.7303511298
C        1.8490009299    0.9725697502    0.7594136768
N        0.3738538757    2.8802145687    2.7448520053
N        1.4311469859   -0.1844917363    1.5650185948
O        1.3206992141    0.3703440416    4.0754713735
O       -0.6555539470   -0.7929446161    2.9320583024
S        0.4472847662    0.1802055079    2.9248100556
H       -3.3121550722    3.0563191219    1.5173961201
H       -1.9683835749    5.1527222876    1.8787891076
H       -2.2069043748    0.8307796336    1.9931780952
H        0.3936171348    4.9431133800    2.6707109186
H        0.6334836067   -2.1297737064    1.3520200462
H        0.0386020870   -0.9814337001    0.1274524358
H        1.7184021792   -1.5820670378    0.0598069660
H        2.2553827967    1.7529513542    1.4033316985
H        2.6421315840    0.6353172300    0.0865884397
H        1.0289005214    1.3899178766    0.1563856783
22   
torsion grid (150,)
C       -2.3342345305    2.9040642975    1.8923938550
C       -1.6004743723    4.0891507945    1.9753080048
C       -1.6987094513    1.6949183594    2.1894957374
C       -0.2536757729    4.0205758589    2.3501430940
C       -0.3529004825    1.7549782237    2.5559120947
C        0.7270470182   -1.1074946627    0.6352590230
C        2.0539091621    0.9245754750    0.9053464483
N        0.3678888200    2.8699311227    2.6362789723
N        1.4201459351   -0.2183722622    1.5831312290
O        1.4425379929    0.4560042437    4.0482846807
O       -0.5692439001   -0.8057982066    3.0693597487
S        0.5064287660    0.1889007540    2.9645872010
H       -3.3833072836    2.9178218863    1.6092904817
H       -2.0562738565    5.0506017392    1.7577582981
H       -2.2167837555    0.7428952193    2.1649638678
H        0.3492642143    4.9234424700    2.4255397794
H        0.2873357689   -1.9491500622    1.1661870058
H       -0.0564685040   -0.5882231589    0.0624577273
H        1.4806436183   -1.4821163381   -0.0631667037
H        2.5194539189    1.5829426606    1.6391631904
H        2.8326861074    0.5300273156    0.2469222593
H        1.3387874661    1.5029484835    0.3039821770
22   
torsion grid (165,)
C       -2.4223040634    2.8396791354    1.9798824789
C       -1.6819710058    4.0211451295    1.9002558413
C       -1.7627835742    1.6505580870    2.3034005135
C       -0.3048270511    3.9688862927    2.1438055110
C       -0.3878917441    1.7263749610    2.5339313150
C        0.6142431779   -0.9059096419    0.5328883373
C        2.2616134535    0.8378154783    1.0396610912
N        0.3400893526    2.8379338477    2.4567656922
N        1.3961923702   -0.2251813905    1.5765050971
O        1.4796455844    0.5087059802    4.0092443324
O       -0.5263514283   -0.8253999787    3.1212562870
S        0.5160065466    0.1947130030    2.9616569348
H       -3.4939621316    2.8416291818    1.7997097957
H       -2.1555137054    4.9676107243    1.6565104626
H       -2.2800201176    0.7021299249    2.3948526042
H        0.3042958975    4.8690573802    2.0882005910
H        0.0241725880   -1.7059253044    0.9760303897
H       -0.0483923147   -0.2169874701   -0.0135243446
H        1.3243965123   -1.3400808002   -0.1763136648
H        2.7612828235    1.3553343304    1.8582081977
H        3.0186924160    0.3632382623    0.4086447739
H        1.7005757932    1.5673359812    0.4413135541
22   
torsion grid (180,)
C       -2.5152812454    2.8153276589    2.1759692655
C       -1.7707728974    3.9564763170    1.8693859885
C       -1.8398534013    1.6380652249    2.5100759770
C       -0.3739900248    3.8769322330    1.9039220515
C       -0.4454596079    1.6868380414    2.5251488212
C        0.5772608677   -0.7100731691    0.4549297394
C        2.4623575695    0.6916649879    1.2107748453
N        0.2869311481    2.7585523578    2.2286358025
N        1.3763482874   -0.2269891000    1.5888892147
O        1.4507364514    0.5223355845    4.0080949296
O       -0.5200479605   -0.8637316562    3.1400787283
S        0.4923805520    0.1816592913    2.9616191730
H       -3.6015704442    2.8388236852    2.1576784405
H       -2.2556531663    4.8919582602    1.6063520561
H       -2.3554578573    0.7173424058    2.7593834740
H        0.2382227520    4.7442169629    1.6642176154
H       -0.1611355457   -1.4295693775    0.8064351645
H        0.0737475815    0.1089721716   -0.0807153414
H        1.2555572374   -1.2143929343   -0.2387062131
H        2.9607858900    1.0538341231    2.1090072612
H        3.1812898268    0.1246529176    0.6116052321
H        2.0958458803    1.5471113020    0.6309037742
