
  -OEChem-12102412483D

 27 28  0     0  0  0  0  0  0999 V2000
    1.4282   -1.7573   -0.1078 C   0  0  0  0  0  0  0  0  0  0  0  0
    6.7893   -1.4218    4.9488 C   0  0  0  0  0  0  0  0  0  0  0  0
    0.6759   -0.7289    0.4678 C   0  0  0  0  0  0  0  0  0  0  0  0
    7.1528   -0.1433    4.5065 C   0  0  0  0  0  0  0  0  0  0  0  0
    2.5156   -2.2771    0.5906 C   0  0  0  0  0  0  0  0  0  0  0  0
    5.7935   -2.1284    4.2784 C   0  0  0  0  0  0  0  0  0  0  0  0
    1.0165   -0.2400    1.7310 C   0  0  0  0  0  0  0  0  0  0  0  0
    6.5209    0.4215    3.3963 C   0  0  0  0  0  0  0  0  0  0  0  0
    2.8838   -1.7595    1.8431 C   0  0  0  0  0  0  0  0  0  0  0  0
    5.1201   -1.5730    3.1764 C   0  0  0  0  0  0  0  0  0  0  0  0
    2.1225   -0.7311    2.4395 C   0  0  0  0  0  0  0  0  0  0  0  0
    5.5180   -0.2996    2.7564 C   0  0  0  0  0  0  0  0  0  0  0  0
    4.0703   -2.4011    2.4934 C   0  0  0  0  0  0  0  0  0  0  0  0
    2.4147   -0.1625    3.8122 C   0  0  0  0  0  0  0  0  0  0  0  0
    4.2072   -3.6215    2.4644 O   0  0  0  0  0  0  0  0  0  0  0  0
    4.9313    0.2681    1.6737 F   0  0  0  0  0  0  0  0  0  0  0  0
    1.1648   -2.1538   -1.0846 H   0  0  0  0  0  0  0  0  0  0  0  0
    7.2856   -1.8636    5.8080 H   0  0  0  0  0  0  0  0  0  0  0  0
   -0.1819   -0.3170   -0.0580 H   0  0  0  0  0  0  0  0  0  0  0  0
    7.9329    0.4128    5.0192 H   0  0  0  0  0  0  0  0  0  0  0  0
    3.1035   -3.0892    0.1735 H   0  0  0  0  0  0  0  0  0  0  0  0
    5.5086   -3.1278    4.5929 H   0  0  0  0  0  0  0  0  0  0  0  0
    0.4062    0.5383    2.1839 H   0  0  0  0  0  0  0  0  0  0  0  0
    6.7943    1.4014    3.0170 H   0  0  0  0  0  0  0  0  0  0  0  0
    2.7989   -0.9140    4.5054 H   0  0  0  0  0  0  0  0  0  0  0  0
    3.1542    0.6437    3.7617 H   0  0  0  0  0  0  0  0  0  0  0  0
    1.5033    0.2576    4.2465 H   0  0  0  0  0  0  0  0  0  0  0  0
  1  3  1  0  0  0  0
  1  5  2  0  0  0  0
  1 17  1  0  0  0  0
  2  4  1  0  0  0  0
  2  6  2  0  0  0  0
  2 18  1  0  0  0  0
  3  7  2  0  0  0  0
  3 19  1  0  0  0  0
  4  8  2  0  0  0  0
  4 20  1  0  0  0  0
  5  9  1  0  0  0  0
  5 21  1  0  0  0  0
  6 10  1  0  0  0  0
  6 22  1  0  0  0  0
  7 11  1  0  0  0  0
  7 23  1  0  0  0  0
  8 12  1  0  0  0  0
  8 24  1  0  0  0  0
  9 11  2  0  0  0  0
  9 13  1  0  0  0  0
 10 12  2  0  0  0  0
 10 13  1  0  0  0  0
 11 14  1  0  0  0  0
 12 16  1  0  0  0  0
 13 15  2  0  0  0  0
 14 25  1  0  0  0  0
 14 26  1  0  0  0  0
 14 27  1  0  0  0  0
M  END
$$$$
