28
0 1 C11H15NO
C                     6.488892525116     2.855950281522    -2.484217790481
C                     7.048284653827     4.016515487482    -1.942852972470
C                     5.420894251286     2.238021501119    -1.835910608030
C                     6.494047716585     4.503555533974    -0.756688808360
C                     4.946245264898     2.815624025260    -0.640867416545
C                     0.659156505919    -0.339924834264    -0.567451095454
C                     1.339068183432     0.274893664750    -1.799038704181
C                     1.684587547959    -0.669841181189     0.526829822898
C                     2.182364076170     1.501690621604    -1.418942408573
C                     2.530665833305     0.557558233336     0.895637990711
C                     3.209375580036     1.143236091673    -0.340864176730
N                     5.471469738767     3.926066195546    -0.116261265080
O                     3.930627004588     2.308013082554     0.104895845662
H                     6.876228033759     2.431341911457    -3.407177306415
H                     7.879023679367     4.527876973668    -2.419100555586
H                     4.979217143289     1.341523322268    -2.252975683960
H                     6.890672481360     5.406188675899    -0.293073510780
H                     0.104521558621    -1.241765755570    -0.851404475138
H                    -0.076940964112     0.371906907849    -0.170041402122
H                     1.983475398633    -0.479277747076    -2.272308760593
H                     0.591153069723     0.558071170099    -2.548052125190
H                     1.179463627016    -1.051569824447     1.421024657395
H                     2.343859716141    -1.475182822762     0.174243206761
H                     2.678401135389     1.917055445864    -2.302005053217
H                     1.536168675922     2.291732315946    -1.016855349626
H                     1.896426647079     1.333642323111     1.341042834652
H                     3.293492779803     0.301055736244     1.638025663243
H                     3.920870601397     0.401697351682    -0.728812356164
