19   
torsion grid (-165,)
C        0.5944475041    1.2936409889   -1.6403246689
C        0.3496266633    1.5699615420   -3.0178601659
C       -0.3651264709    0.6845212514   -0.8844940262
C       -0.8616307796    1.2175081022   -3.5360047830
C       -1.6543755996    0.2786402272   -1.4221601385
C       -4.2151321010    1.2194433587   -3.6442596404
C       -4.3680630286   -0.1065159563   -2.9286872943
C       -3.0465483120    0.2584665627   -3.5446026485
N       -1.8484310809    0.6142696930   -2.7930973781
O       -2.5156022373   -0.3039250980   -0.7571220050
H        1.5482901281    1.5664274145   -1.1945509554
H        1.0906085769    2.0460140780   -3.6495862909
H       -0.2120485549    0.4492880936    0.1634990209
H       -1.1217070037    1.4093128005   -4.5721809091
H       -4.6725748324    1.3660828141   -4.6186171763
H       -4.1629998201    2.1074998298   -3.0213309326
H       -4.4417208816   -0.0970618690   -1.8513786550
H       -4.9157641197   -0.9014219911   -3.4262069064
H       -2.7872361868   -0.2792565637   -4.4526654614
19   
torsion grid (-150,)
C        0.5447923811    1.3365014158   -1.6204260533
C        0.2678421680    1.7012637047   -2.9723094862
C       -0.3632120647    0.6116544681   -0.9031818742
C       -0.9344239490    1.3340754033   -3.5012476819
C       -1.6206549796    0.1504966364   -1.4709966772
C       -4.1614407212    1.2171683529   -3.8318117845
C       -4.3933020564    0.0867582011   -2.8493555135
C       -3.0607135940    0.2228294331   -3.5210150566
N       -1.8824161153    0.6451164576   -2.7835897468
O       -2.4072587417   -0.6004035556   -0.8902544008
H        1.4874618839    1.6311216743   -1.1646834466
H        0.9781423614    2.2566664848   -3.5737978785
H       -0.1736692047    0.2974910640    0.1178622879
H       -1.2254171438    1.5892277971   -4.5154965736
H       -4.6154884024    1.1743225919   -4.8176433280
H       -4.0488202419    2.2159156311   -3.4203202123
H       -4.4470307300    0.3326312363   -1.7974369813
H       -5.0060776884   -0.7563321320   -3.1512914668
H       -2.8267880999   -0.5113073005   -4.2887343267
19   
torsion grid (-135,)
C        0.5270792281    1.2809470544   -1.6143190334
C        0.1992762599    1.7557730240   -2.9199384954
C       -0.3208768463    0.4398391368   -0.9509371233
C       -0.9913967686    1.3700543438   -3.4638832155
C       -1.5640578857   -0.0323941318   -1.5375627652
C       -4.0900314074    1.1416138988   -3.9412916564
C       -4.3932684105    0.1743122600   -2.8146206514
C       -3.0628517229    0.1202759365   -3.5017156044
N       -1.8764082512    0.5615877402   -2.7955627606
O       -2.3094044030   -0.8711894505   -1.0269119188
H        1.4620167750    1.5866255946   -1.1499160980
H        0.8632281535    2.4080910283   -3.4752575285
H       -0.0894140885    0.0457395370    0.0330603855
H       -1.3187791571    1.6972512507   -4.4455217142
H       -4.5601297002    0.9962101692   -4.9094344887
H       -3.9067798210    2.1779232153   -3.6726722514
H       -4.4081522011    0.5650503515   -1.8044172335
H       -5.0736596565   -0.6516519058   -2.9922141438
H       -2.8811071084   -0.7290976954   -4.1561746673
19   
torsion grid (-120,)
C        0.5083323063    1.2859658419   -1.6139417413
C        0.1263029788    1.8386612147   -2.8725353332
C       -0.2774614221    0.3530621069   -0.9965036372
C       -1.0526947061    1.4270647677   -3.4258602930
C       -1.5124539024   -0.1292975352   -1.5879301900
C       -4.0351301383    1.0871634540   -4.0416851064
C       -4.4018180004    0.3081368478   -2.7947931535
C       -3.0795732145    0.0691351320   -3.4628073331
N       -1.8690913485    0.5180046620   -2.8058793857
O       -2.2277602321   -1.0187879702   -1.1208179800
H        1.4363852209    1.6073460740   -1.1463717944
H        0.7413469124    2.5671783145   -3.3879665961
H       -0.0045028906   -0.0940273436   -0.0463793825
H       -1.4123331004    1.8008189722   -4.3784395810
H       -4.5188488127    0.8403560068   -4.9819846953
H       -3.7951015155    2.1389865528   -3.9175583279
H       -4.3817771176    0.8385604123   -1.8492220763
H       -5.1402766760   -0.4838629252   -2.8584256561
H       -2.9587983533   -0.8751867100   -3.9871063773
19   
torsion grid (-105,)
C        0.5027589578    1.2763358332   -1.6027300033
C        0.0608820253    1.9043134260   -2.8040012289
C       -0.2193939884    0.2595414642   -1.0412303085
C       -1.1085942817    1.4743050454   -3.3661897980
C       -1.4513761423   -0.2248625235   -1.6333769057
C       -3.9943997811    1.0035526754   -4.1274359696
C       -4.4032618248    0.4296601032   -2.7860456089
C       -3.0953966820    0.0264684095   -3.4094661260
N       -1.8555632797    0.4736753912   -2.8070542345
O       -2.1360526170   -1.1581216929   -1.2056450328
H        1.4260017208    1.6078406229   -1.1327784197
H        0.6257155749    2.7006114323   -3.2746612777
H        0.0966139058   -0.2407090951   -0.1318288757
H       -1.4992573442    1.8958111141   -4.2849764323
H       -4.4912433641    0.6498166749   -5.0256935213
H       -3.7182602952    2.0529895928   -4.1523392442
H       -4.3499260998    1.0907622344   -1.9272268463
H       -5.1866235906   -0.3194608708   -2.7404258679
H       -3.0332934022   -0.9866962273   -3.7945929672
19   
torsion grid (-90,)
C        0.5109410680    1.2560449945   -1.6058653758
C       -0.0034990279    1.9606557031   -2.7322422630
C       -0.1489793550    0.1658843081   -1.1084550298
C       -1.1720056304    1.5250717252   -3.2939267979
C       -1.3891147711   -0.3106169297   -1.6869535047
C       -3.9688839463    0.8985791501   -4.2162586355
C       -4.4088175359    0.5491088871   -2.8080182721
C       -3.1163316002    0.0010641508   -3.3564022512
N       -1.8507051062    0.4444327486   -2.8043383471
O       -2.0392191511   -1.2835873417   -1.2933858605
H        1.4373295088    1.5871692198   -1.1419338445
H        0.5087597323    2.8179877999   -3.1531338336
H        0.2176331247   -0.3915160710   -0.2529390915
H       -1.6031119470    2.0033979672   -4.1644995886
H       -4.4750041953    0.4304352513   -5.0549958269
H       -3.6678198991    1.9244134602   -4.4000310835
H       -4.3261316570    1.3314521333   -2.0598272303
H       -5.2281181473   -0.1463096319   -2.6576567669
H       -3.1043262713   -1.0573127685   -3.5912130216
19   
torsion grid (-75,)
C        0.5444292727    1.2365876926   -1.6200033437
C       -0.0539069994    2.0156392761   -2.6510262184
C       -0.0526281819    0.0841213108   -1.1881641945
C       -1.2322300141    1.5808290805   -3.1927406662
C       -1.3093752050   -0.3837378296   -1.7358869734
C       -3.9251233994    0.7853539662   -4.2950004549
C       -4.4037460435    0.6758566644   -2.8590050170
C       -3.1282628237   -0.0057653420   -3.2924737976
N       -1.8453889276    0.4335348031   -2.7751452007
O       -1.9126695142   -1.3993931486   -1.3753356228
H        1.4828901892    1.5608429272   -1.1760517071
H        0.4023639061    2.9276796180   -3.0178820410
H        0.3753940204   -0.5297608595   -0.4027775129
H       -1.7218145596    2.1215002684   -3.9925887185
H       -4.4375246410    0.2106711545   -5.0605722547
H       -3.5833168699    1.7565154182   -4.6359017189
H       -4.2936256857    1.5606135953   -2.2387096406
H       -5.2611124546    0.0531838140   -2.6239572598
H       -3.1609633595   -1.0852119718   -3.3693208266
19   
torsion grid (-60,)
C        0.5515921054    1.2273070282   -1.6293002357
C       -0.1327203430    2.0667726295   -2.5537762508
C        0.0137140017    0.0250786136   -1.2610287455
C       -1.3274017281    1.6358307440   -3.0606406253
C       -1.2598219924   -0.4418419527   -1.7699954238
C       -3.8797104375    0.6654513381   -4.3595148833
C       -4.4197056841    0.8095445462   -2.9470445932
C       -3.1707700769    0.0018792481   -3.2104971607
N       -1.8805897572    0.4376041159   -2.7068908490
O       -1.8043910251   -1.5049492500   -1.4542631230
H        1.5061334391    1.5452130734   -1.2161578204
H        0.2702820953    3.0231466683   -2.8659786921
H        0.5067677801   -0.6366506394   -0.5569200424
H       -1.8848313268    2.2314994564   -3.7730150815
H       -4.3959553422    0.0060140452   -5.0505906477
H       -3.4568112556    1.5456359785   -4.8323486780
H       -4.2831509176    1.7747744053   -2.4671157732
H       -5.3234879898    0.2802051840   -2.6617353609
H       -3.2555513288   -1.0729641878   -3.1230944490
19   
torsion grid (-45,)
C        0.5685423058    1.2159893745   -1.6605083350
C       -0.1944970678    2.1045365812   -2.4708086703
C        0.0832612380   -0.0240971505   -1.3500762910
C       -1.4117789637    1.6804739611   -2.9257245486
C       -1.2082688805   -0.4893106109   -1.8145130387
C       -3.8226908224    0.5473792896   -4.3831988442
C       -4.4165743057    0.9310047638   -3.0380612649
C       -3.2171119426    0.0184601829   -3.1101647401
N       -1.9153170300    0.4453421180   -2.6280397895
O       -1.6969629727   -1.5942482024   -1.5554700278
H        1.5417441785    1.5273386727   -1.2880238985
H        0.1642560766    3.0931231567   -2.7325759734
H        0.6383431186   -0.7240570708   -0.7346966108
H       -2.0330268231    2.3168693678   -3.5454334564
H       -4.3547524770   -0.1646650335   -5.0067041541
H       -3.2923168049    1.3128672739   -4.9415837732
H       -4.2502943980    1.9474954920   -2.6919321707
H       -5.3656893416    0.5002123890   -2.7344069476
H       -3.3654644873   -1.0262259687   -2.8736151029
19   
torsion grid (-30,)
C        0.5697039210    1.1993871334   -1.7023066020
C       -0.2525132489    2.1325496754   -2.3962476983
C        0.1197983275   -0.0683306490   -1.4571401964
C       -1.4925904181    1.7247754470   -2.8017084689
C       -1.1885770906   -0.5223573851   -1.8840666354
C       -3.7946313289    0.4146483517   -4.3843010973
C       -4.4285284447    1.0134218942   -3.1408723236
C       -3.2796619757    0.0470945992   -3.0143704301
N       -1.9620218137    0.4629337791   -2.5668435245
O       -1.6400519951   -1.6568028603   -1.6941772217
H        1.5599068401    1.4987612496   -1.3666399497
H        0.0776053770    3.1434554713   -2.6051030632
H        0.7209291537   -0.8030640525   -0.9322043801
H       -2.1581671325    2.3946405337   -3.3340891083
H       -4.3349828361   -0.3437692127   -4.9424052704
H       -3.1767866881    1.0680805770   -4.9941193916
H       -4.2515580351    2.0655249253   -2.9380646403
H       -5.4067721573    0.6610965045   -2.8282476189
H       -3.4903512820   -0.9475065096   -2.6461614960
19   
torsion grid (-15,)
C        0.5950524623    1.1958723103   -1.7314537398
C       -0.2701629832    2.1755777294   -2.2964333095
C        0.1636831645   -0.0910044815   -1.5638948621
C       -1.5332550439    1.7944809834   -2.6557193477
C       -1.1634229150   -0.5200983556   -1.9560511789
C       -3.7547949543    0.2610285909   -4.3519186947
C       -4.4109135904    1.0778488447   -3.2519534224
C       -3.3129390786    0.1058927349   -2.9158655139
N       -1.9848100664    0.5149272486   -2.4951256919
O       -1.5968233891   -1.6722708573   -1.8502872858
H        1.6027580386    1.4746327712   -1.4319646234
H        0.0433245709    3.2030744965   -2.4397052043
H        0.7980099860   -0.8620659100   -1.1397952077
H       -2.2336293518    2.5012170184   -3.0838396236
H       -4.3022892573   -0.5558112413   -4.8117899085
H       -3.0763496806    0.7883965111   -5.0169850654
H       -4.2214749590    2.1460712753   -3.2312415951
H       -5.4104781352    0.8066938243   -2.9258712575
H       -3.5903044460   -0.8108413768   -2.4133201673
19   
torsion grid (0,)
C        0.5987872874    1.1895174456   -1.7543273740
C       -0.2989314982    2.2109958853   -2.1769267416
C        0.1831910431   -0.1118007015   -1.6843082741
C       -1.5781352886    1.8556658927   -2.5058214851
C       -1.1612188949   -0.5114262249   -2.0465680316
C       -3.7315486877    0.1074592876   -4.3077295034
C       -4.3770369279    1.1233060195   -3.3781733384
C       -3.3477020410    0.1626586247   -2.8502204704
N       -2.0133532908    0.5620986714   -2.4428051303
O       -1.5912124286   -1.6691881102   -2.0303181856
H        1.6201377363    1.4482315354   -1.4844398911
H        0.0019329800    3.2506300566   -2.2336927257
H        0.8429989774   -0.9135037563   -1.3699749852
H       -2.3086433374    2.5921097356   -2.8155846569
H       -4.3056969221   -0.7466065955   -4.6526211520
H       -3.0040039920    0.4902895136   -5.0176229953
H       -4.1336082396    2.1684723831   -3.5353006920
H       -5.3997063713    0.9577985253   -3.0532971627
H       -3.7025895687   -0.6516858874   -2.2312706920
19   
torsion grid (15,)
C        0.6002528761    1.2031719511   -1.7575803282
C       -0.3267832109    2.2428106072   -2.0566188033
C        0.2040197196   -0.1060365253   -1.7799225286
C       -1.6125848559    1.8976585187   -2.3703826728
C       -1.1510851331   -0.4934024008   -2.1164656057
C       -3.7180107258   -0.0285149240   -4.2325561959
C       -4.3150011914    1.1522100845   -3.4828949891
C       -3.3693257312    0.2109588151   -2.7879915558
N       -2.0243170527    0.5952955397   -2.4061577402
O       -1.5770205496   -1.6513356541   -2.1637780477
H        1.6282809730    1.4547601629   -1.5066970016
H       -0.0412365577    3.2880024013   -2.0321328382
H        0.8855696663   -0.9203246907   -1.5575539327
H       -2.3697482006    2.6416334779   -2.5848493823
H       -4.3388534179   -0.8868738805   -4.4673606871
H       -2.9495716562    0.1988288139   -4.9651058108
H       -3.9835879429    2.1414112034   -3.7804416868
H       -5.3559308886    1.1081801796   -3.1777181821
H       -3.7965430362   -0.4861848494   -2.0759329954
19   
torsion grid (30,)
C        0.5735286440    1.2070010402   -1.7418414668
C       -0.3792092928    2.2491193316   -1.9373438304
C        0.2017337088   -0.1046951546   -1.8522480863
C       -1.6638705308    1.9021616733   -2.2512193948
C       -1.1584303244   -0.4942065254   -2.1690897473
C       -3.7389085862   -0.1733919741   -4.1385520043
C       -4.2666375564    1.1352416143   -3.5781360622
C       -3.4084430286    0.2322986301   -2.7293799579
N       -2.0489864243    0.5965227564   -2.3843826608
O       -1.5729722914   -1.6532484267   -2.2578950327
H        1.6031588756    1.4596142803   -1.4985345717
H       -0.1112892463    3.2947118959   -1.8395069016
H        0.9034696024   -0.9186431494   -1.7035236043
H       -2.4428000393    2.6407992517   -2.3986526949
H       -4.4146479667   -1.0114450599   -4.2725021629
H       -2.9357726923   -0.1099820318   -4.8657327777
H       -3.8405310695    2.0489505837   -3.9799978446
H       -5.3166859295    1.2107142382   -3.3127630986
H       -3.8969355279   -0.3320448543   -1.9412306883
19   
torsion grid (45,)
C        0.5222970042    1.0339320088   -1.5755859167
C        0.3363276345    0.4051069270   -2.8423780247
C       -0.5235344350    1.6453197632   -0.9416129066
C       -0.9155286418    0.4132204056   -3.3894154667
C       -1.8526261975    1.6965008295   -1.5223036537
C       -4.4159427294    0.2646250733   -2.7465899179
C       -3.8201817126   -0.2286002545   -4.0488645866
C       -3.2852273983    1.0191641980   -3.3850541857
N       -1.9810015832    0.9947176561   -2.7551345668
O       -2.8236481196    2.2817976584   -1.0363506584
H        1.5074406087    1.0301992969   -1.1144429230
H        1.1543144237   -0.0713947326   -3.3701200272
H       -0.4081606499    2.1412970723    0.0164220886
H       -1.1350841553   -0.0405919427   -4.3494801427
H       -5.3928802810    0.7361057726   -2.7506884745
H       -4.1819836618   -0.2939685593   -1.8467863737
H       -3.2172784646   -1.1307803967   -4.0081071410
H       -4.3817909624   -0.1018538471   -4.9694907579
H       -3.5279143285    1.9800634659   -3.8302942551
19   
torsion grid (60,)
C        0.5286878162    1.0313216081   -1.5934503323
C        0.3674614312    0.4942027452   -2.9058902082
C       -0.5427597557    1.5413876446   -0.9158783860
C       -0.8864190234    0.4808565571   -3.4452306111
C       -1.8746506798    1.5881533889   -1.4945810284
C       -4.4532266225    0.3782518217   -2.7655964540
C       -3.8467756156   -0.3121645184   -3.9640388999
C       -3.2600872129    0.9859999142   -3.4458083912
N       -1.9812680511    0.9504537618   -2.7650421435
O       -2.8554494333    2.1195816825   -0.9693996282
H        1.5146092439    1.0397330782   -1.1340114374
H        1.2048031580    0.1004692879   -3.4703147718
H       -0.4469412439    1.9729621876    0.0749393353
H       -1.0933910006    0.0820759379   -4.4329380984
H       -5.4002258260    0.8963111592   -2.8736249827
H       -4.2859575449   -0.0613688733   -1.7893682417
H       -3.2805184906   -1.2216305450   -3.7853866248
H       -4.3689658697   -0.2808421590   -4.9158050035
H       -3.4228291788    1.8926428738   -4.0229963771
19   
torsion grid (75,)
C        0.5439489887    1.0404891761   -1.6119020116
C        0.3994824483    0.6021046262   -2.9627568661
C       -0.5483735956    1.4385640276   -0.8955518277
C       -0.8568353545    0.5605468505   -3.4922398397
C       -1.8857245733    1.4722689121   -1.4663381922
C       -4.4939510011    0.5044277925   -2.8013959764
C       -3.8951290613   -0.3844738219   -3.8592819734
C       -3.2334384771    0.9361673824   -3.4978859896
N       -1.9757745339    0.9061546439   -2.7733309116
O       -2.8729396725    1.9405967278   -0.8957681967
H        1.5313418758    1.0653641824   -1.1562743805
H        1.2512434457    0.3033793817   -3.5628099778
H       -0.4691556405    1.8017365321    0.1237606048
H       -1.0507326556    0.2232121303   -4.5056311797
H       -5.3944760511    1.0645986576   -3.0311506935
H       -4.4040620112    0.2009859661   -1.7665485278
H       -3.3906020890   -1.2882702955   -3.5303491938
H       -4.3745160607   -0.4565355017   -4.8314806349
H       -3.3065454940    1.7576709988   -4.2060388907
19   
torsion grid (90,)
C        0.5631418908    1.0533071252   -1.6240915672
C        0.4248865384    0.7399174130   -3.0087511243
C       -0.5440692182    1.3021791380   -0.8658144741
C       -0.8344413903    0.6766755167   -3.5278312343
C       -1.8930301980    1.2886810707   -1.4106871264
C       -4.5572549047    0.6621152725   -2.8831737449
C       -3.9578974428   -0.4511132380   -3.7019334450
C       -3.2139412805    0.8651726143   -3.5333310045
N       -1.9673266610    0.8927703117   -2.7788822492
O       -2.8942986494    1.5884575617   -0.7550785443
H        1.5529604322    1.0996346525   -1.1756473015
H        1.2825022872    0.5523636830   -3.6444448474
H       -0.4775575724    1.5616435810    0.1855283211
H       -1.0163208027    0.4270373387   -4.5684600886
H       -5.3786140959    1.2318418852   -3.3074461187
H       -4.5818714769    0.5551357694   -1.8086123679
H       -3.5533760096   -1.3020115630   -3.1617672882
H       -4.3662594616   -0.6816435333   -4.6820474857
H       -3.1846440148    1.5328450557   -4.3899721667
19   
torsion grid (105,)
C        0.6029892824    1.0947678571   -1.6526951904
C        0.4736641676    0.8933639695   -3.0572591291
C       -0.5129106536    1.1738817599   -0.8691699062
C       -0.7840951223    0.8104200350   -3.5805937404
C       -1.8574950438    1.0439412753   -1.4029285476
C       -4.5729006686    0.8621377990   -2.9823571980
C       -4.0164015347   -0.4688921929   -3.4536313721
C       -3.1785529859    0.7866517922   -3.5476906615
N       -1.9208138409    0.9255132176   -2.8179515154
O       -2.8744355468    1.0275929367   -0.7006241910
H        1.5909494778    1.1787439556   -1.2058612021
H        1.3359587564    0.8074631752   -3.7082079579
H       -0.4568471119    1.3120978520    0.2054107456
H       -0.9522178167    0.6567698664   -4.6414984380
H       -5.2995720891    1.3664865337   -3.6135621955
H       -4.6891690766    0.9999660350   -1.9184204287
H       -3.7438637010   -1.1725647517   -2.6732722584
H       -4.3767318465   -0.9136054886   -4.3767623113
H       -3.0690794607    1.2068659330   -4.5424919497
19   
torsion grid (120,)
C        0.5768074662    1.1500460838   -1.6586261709
C        0.4764902407    1.0237878953   -3.0733562164
C       -0.5508710168    1.1122722090   -0.8871280587
C       -0.7680114501    0.8957771468   -3.6217442441
C       -1.8741219019    0.9257151839   -1.4506391621
C       -4.5594814692    0.9982922251   -3.0863405192
C       -4.1128081722   -0.4364236466   -3.3251125877
C       -3.1695909479    0.7109615062   -3.5929612267
N       -1.9158024915    0.8978886492   -2.8699781735
O       -2.9026777828    0.7895478984   -0.7769920136
H        1.5525389114    1.2690295705   -1.1932960938
H        1.3500969978    1.0289938587   -3.7147163645
H       -0.5152085540    1.1869263793    0.1945795140
H       -0.9114497179    0.8004413378   -4.6929404366
H       -5.2307786162    1.4604700498   -3.8052016056
H       -4.6820469478    1.2990524803   -2.0565379594
H       -3.9309100087   -1.0225905675   -2.4314952044
H       -4.4907414927   -0.9859343741   -4.1824254091
H       -3.0164003317    0.9489962250   -4.6401782970
19   
torsion grid (135,)
C        0.5900442933    1.1964753497   -1.6449827383
C        0.4995572842    1.1490120778   -3.0645792689
C       -0.5352275759    1.0520970714   -0.8818150295
C       -0.7329574545    0.9680257879   -3.6262286307
C       -1.8471183043    0.8398510497   -1.4599853737
C       -4.4865092487    1.0915312560   -3.1568631065
C       -4.1657487505   -0.3929054750   -3.2326377702
C       -3.1226490748    0.6311888697   -3.6077267690
N       -1.8754740870    0.8365219201   -2.8798000296
O       -2.8810224084    0.6699737682   -0.8012210689
H        1.5564158731    1.3450845478   -1.1687942316
H        1.3710695242    1.2523510452   -3.7004274746
H       -0.5062127417    1.0759958681    0.2023731152
H       -0.8674741792    0.9253807358   -4.7019276800
H       -5.1164588804    1.5358269254   -3.9226928289
H       -4.5815091387    1.5056836991   -2.1627592302
H       -4.0539224189   -0.8963429806   -2.2809339432
H       -4.5774494840   -0.9890374915   -4.0422789543
H       -2.9378709441    0.7300303486   -4.6716510672
19   
torsion grid (150,)
C        0.5754844592    1.2197420678   -1.6360564288
C        0.4723013735    1.2514039843   -3.0551769137
C       -0.5319448914    0.9676297154   -0.8748530885
C       -0.7499026829    1.0128406877   -3.6178822386
C       -1.8390467824    0.7328133048   -1.4553808917
C       -4.4370102041    1.1373668990   -3.2197714694
C       -4.2461155385   -0.3674367464   -3.1538573188
C       -3.1132623835    0.5217208863   -3.6067438248
N       -1.8700455440    0.7412362577   -2.8751025119
O       -2.8692355671    0.5414241016   -0.7967992191
H        1.5360176450    1.3993200400   -1.1587346874
H        1.3266421954    1.4560548009   -3.6898079109
H       -0.4960733841    0.9423722711    0.2091152913
H       -0.8916164273    1.0212064246   -4.6934334136
H       -5.0292893861    1.5669817699   -4.0228828384
H       -4.4907410129    1.6466207543   -2.2660292866
H       -4.1921581629   -0.7973818132   -2.1635198811
H       -4.6968043617   -0.9902470056   -3.9218897162
H       -2.9075786077    0.4947959989   -4.6708807977
19   
torsion grid (165,)
C        0.5988693678    1.2413776267   -1.6506669509
C        0.4634733471    1.3498411133   -3.0637656479
C       -0.4755086272    0.8790508849   -0.8874226266
C       -0.7495381951    1.0552679400   -3.6184433319
C       -1.7823966865    0.6120890414   -1.4568504456
C       -4.3425470892    1.1688581703   -3.3152620185
C       -4.2829607859   -0.3300605777   -3.1031541562
C       -3.0682483632    0.4093311203   -3.6117214023
N       -1.8301876007    0.6498592160   -2.8760580344
O       -2.7947994267    0.3768548704   -0.7860241303
H        1.5559071457    1.4540249700   -1.1799373201
H        1.2871622854    1.6536349483   -3.6992327683
H       -0.4184462785    0.8019163601    0.1931940726
H       -0.9148551343    1.1145189175   -4.6890836021
H       -4.8925638002    1.5747629770   -4.1595074356
H       -4.3524418510    1.7708954916   -2.4137443125
H       -4.2853653731   -0.6762125303   -2.0804549567
H       -4.7685908809   -0.9767247141   -3.8293147145
H       -2.8442874783    0.2534388553   -4.6612018989
19   
torsion grid (180,)
C        0.5820055672    1.2729988355   -1.6564591845
C        0.3975160599    1.4547764047   -3.0573516859
C       -0.4440375489    0.7981972084   -0.8901327917
C       -0.8109024846    1.1179832058   -3.5951172672
C       -1.7498583261    0.4763719248   -1.4384041669
C       -4.2886512384    1.2110962166   -3.4598287824
C       -4.3547081554   -0.2423468087   -3.0432729366
C       -3.0694871071    0.3223881254   -3.5962479310
N       -1.8446149800    0.6032049279   -2.8510455325
O       -2.7141252547    0.1273483187   -0.7482502382
H        1.5375314249    1.5183882555   -1.1987113891
H        1.1814066564    1.8465389694   -3.6950780164
H       -0.3493219220    0.6585825812    0.1815455301
H       -1.0159270684    1.2333156001   -4.6543763102
H       -4.7857504355    1.5402039599   -4.3678704868
H       -4.2646454273    1.9377579750   -2.6537050967
H       -4.4096657976   -0.4536568904   -1.9865542266
H       -4.8687313053   -0.9401453009   -3.6989643514
H       -2.8225298508    0.0020435524   -4.6031498921
