17   
torsion grid (-165,)
C        3.5151932400   -2.0803116264    3.8908329724
C        4.8310099732   -1.5606880411    4.4209409327
C        2.1633393440   -0.2983236283    0.4459090531
C        1.1893791608   -0.4158279468    1.6234969107
C        1.5812866516   -1.4936891511    2.6222844812
O        3.0976511557   -3.2137363227    4.0336969827
O        2.8494661905   -1.1116459349    3.2169240501
H        5.4922360125   -1.3134405853    3.5845640419
H        5.2982731335   -2.3227157494    5.0441223899
H        4.6739377239   -0.6445672395    4.9967097530
H        1.8373218523    0.4748236124   -0.2572207151
H        3.1673896856   -0.0376814058    0.7930920178
H        2.2319525159   -1.2441527212   -0.1039270672
H        0.1843516361   -0.6598198824    1.2574584428
H        1.1089539808    0.5450845291    2.1450844440
H        0.8433102968   -1.5955077521    3.4243140449
H        1.6969012153   -2.4694061530    2.1423768829
17   
torsion grid (-150,)
C        3.5344232872   -2.0835892544    3.8057914237
C        4.8177314850   -1.5382158159    4.3874027306
C        2.2155243868   -0.3712394583    0.4868947936
C        1.1920164743   -0.4026316535    1.6270311378
C        1.5102728582   -1.4471946525    2.6868573505
O        3.2301617279   -3.2601129005    3.7606089426
O        2.7607890782   -1.0787022212    3.3265254786
H        5.4215846867   -1.0927679927    3.5906572273
H        5.3746738866   -2.3464893937    4.8605555214
H        4.6013883227   -0.7507617215    5.1143303570
H        1.9451167631    0.3790229044   -0.2630241299
H        3.2130030898   -0.1263784058    0.8638382872
H        2.2746397227   -1.3431109436   -0.0164528066
H        0.1944546463   -0.6314726093    1.2315752421
H        1.1234243375    0.5837383815    2.1005366264
H        0.7381920111   -1.4863981351    3.4622165877
H        1.6145570043   -2.4453021264    2.2553148475
17   
torsion grid (-135,)
C        3.5545179308   -2.0649138821    3.7037732749
C        4.7995968681   -1.5161347662    4.3603962552
C        2.2625865981   -0.4524708281    0.5303478057
C        1.2016199796   -0.3957958187    1.6345917885
C        1.4449927060   -1.4058321473    2.7477635774
O        3.3585264114   -3.2372668093    3.4476348750
O        2.6827771689   -1.0631747269    3.4262374894
H        5.3387912354   -0.8817188056    3.6499908148
H        5.4394314674   -2.3408031940    4.6733108351
H        4.5343836086   -0.8943410455    5.2195878864
H        2.0483032311    0.2756609923   -0.2584738971
H        3.2561107835   -0.2294668745    0.9313310984
H        2.3010078798   -1.4463922655    0.0704976562
H        0.2089937396   -0.6033488140    1.2153339413
H        1.1571218866    0.6114621800    2.0649824873
H        0.6506491162   -1.3725931982    3.5002168515
H        1.5225431576   -2.4244759950    2.3631368774
17   
torsion grid (-120,)
C        3.5742376454   -2.0160148850    3.5928809873
C        4.7798075034   -1.5012581485    4.3438249443
C        2.3006711005   -0.5399149738    0.5706188654
C        1.2168010857   -0.3956827053    1.6443193109
C        1.3906655039   -1.3676568343    2.8047299856
O        3.4746179311   -3.1277060809    3.1105305076
O        2.6171387244   -1.0567170374    3.5186286157
H        5.2546911274   -0.7010586819    3.7675364258
H        5.4896582574   -2.3142826884    4.4938224892
H        4.4777740736   -1.0778569288    5.3053690812
H        2.1343106008    0.1633508611   -0.2516222944
H        3.2931628474   -0.3383125624    0.9857693504
H        2.3124297463   -1.5529470335    0.1543587723
H        0.2267863470   -0.5805356133    1.2081845418
H        1.2033312901    0.6291225654    2.0334706037
H        0.5832847265   -1.2608877898    3.5351501473
H        1.4325852573   -2.4032474616    2.4630872834
17   
torsion grid (-105,)
C        3.5758518188   -1.9542088377    3.4983243874
C        4.7622898678   -1.4938577999    4.3122068051
C        2.3471408579   -0.6116408870    0.6188305597
C        1.2383886704   -0.4073350008    1.6569283637
C        1.3385867298   -1.3411448326    2.8582051753
O        3.5416940122   -2.9648251352    2.8229230809
O        2.5495158967   -1.0743364836    3.6154597433
H        5.1879120873   -0.5945797444    3.8555419922
H        5.5157930412   -2.2807539646    4.3349378512
H        4.4528865365   -1.2315227070    5.3271239144
H        2.2033611237    0.0552223883   -0.2375010110
H        3.3322762515   -0.3965465605    1.0442046303
H        2.3634173266   -1.6429318731    0.2528320694
H        0.2572740960   -0.5805359757    1.1959236030
H        1.2396358117    0.6304192260    2.0109690276
H        0.5199253535   -1.1637725450    3.5605323694
H        1.3360042870   -2.3892552657    2.5532170555
17   
torsion grid (-90,)
C        3.9615299877   -1.6095356147    3.7446976992
C        4.5280237149   -1.2084712928    5.0860743873
C        1.1968295034   -0.7918463089    0.1999525847
C        1.9755167256   -0.4866533890    1.4848890377
C        1.9590506389   -1.6731224234    2.4415991468
O        4.6027666770   -2.0863179085    2.8273616079
O        2.6308204406   -1.3536353882    3.6875095303
H        4.5299354180   -0.1166448156    5.1659840038
H        5.5489376374   -1.5791598980    5.1754456745
H        3.9075763177   -1.5966842494    5.8977294176
H        1.2127710212    0.0661908585   -0.4790596181
H        1.6296177902   -1.6458624532   -0.3328009740
H        0.1478262321   -1.0271661862    0.4139944960
H        1.5445826002    0.3842506269    1.9920425280
H        3.0154350101   -0.2421795178    1.2442100471
H        0.9373610553   -1.9257512505    2.7373623830
H        2.4333729982   -2.5490167878    1.9936676656
17   
torsion grid (-75,)
C        3.9402912050   -1.5499364889    3.7122702004
C        4.5165491289   -1.1915726097    5.0615255069
C        1.2310332006   -0.7889408762    0.2170001352
C        2.0311659439   -0.5337305939    1.5001763865
C        1.9063119642   -1.7063325749    2.4675459370
O        4.5903634711   -1.8708347720    2.7351046135
O        2.5875382508   -1.4660826934    3.7269082883
H        4.3848258743   -0.1193240518    5.2386561828
H        5.5789628771   -1.4337731799    5.0792326731
H        3.9900954782   -1.7235351993    5.8580444307
H        1.3191259414    0.0573331978   -0.4711936765
H        1.5941382917   -1.6808099923   -0.3057453620
H        0.1656280141   -0.9352964086    0.4297110578
H        1.6690267571    0.3749263978    1.9956188416
H        3.0860852851   -0.3796277797    1.2589427880
H        0.8656056265   -1.8724194066    2.7558454706
H        2.3052064585   -2.6216489668    2.0210161435
17   
torsion grid (-60,)
C        3.9506409277   -1.4955259526    3.6990689617
C        4.4821587088   -1.1679626581    5.0749439976
C        1.2095423843   -0.7665385455    0.2453393056
C        2.1123248297   -0.5985372789    1.4745140552
C        1.9054196643   -1.7522932531    2.4525001654
O        4.6345187201   -1.6547223023    2.7055277951
O        2.6005727715   -1.6027091556    3.7200815734
H        4.2197557616   -0.1359049724    5.3288997866
H        5.5663824407   -1.2782496561    5.0817517801
H        4.0273139563   -1.8173040555    5.8273020709
H        1.3557529907    0.0588846376   -0.4580892116
H        1.4334087942   -1.6978310883   -0.2872109286
H        0.1489248800   -0.7851732517    0.5218083786
H        1.8781421276    0.3450863743    1.9828641651
H        3.1586790915   -0.5581748554    1.1698341711
H        0.8563106000   -1.8377344999    2.7442998206
H        2.2221051195   -2.6969154850    1.9972237306
17   
torsion grid (-45,)
C        3.9739569190   -1.4188604234    3.6981866613
C        4.4414425336   -1.1546757961    5.1116318508
C        1.1668250386   -0.7469865170    0.2745795829
C        2.1945913559   -0.6771226234    1.4124447109
C        1.9293114594   -1.7896367990    2.4249492949
O        4.6884668572   -1.3930377627    2.7143342946
O        2.6518396428   -1.7092711957    3.6853002301
H        4.0402590888   -0.1951751662    5.4534241689
H        5.5305628984   -1.1212204428    5.1340013670
H        4.0690509979   -1.9266425944    5.7898459466
H        1.3600119308    0.0332497293   -0.4680138667
H        1.2109473761   -1.7121959054   -0.2431900552
H        0.1433517136   -0.6116754052    0.6430420014
H        2.1222440926    0.2944059905    1.9173621551
H        3.2062639476   -0.7616407820    1.0178992988
H        0.8827419858   -1.7858290857    2.7383767480
H        2.1500859304   -2.7652912193    1.9764852283
17   
torsion grid (-30,)
C        3.9872534737   -1.3231008612    3.7066881558
C        4.4267610519   -1.1817456515    5.1476865128
C        1.1465130040   -0.7566586774    0.2771917032
C        2.2437196640   -0.7321877291    1.3509877295
C        1.9336688099   -1.7789310100    2.4197266059
O        4.6931978427   -1.0941340295    2.7438595616
O        2.7065246206   -1.7581084970    3.6544093569
H        3.9111725007   -0.3304675695    5.6035932664
H        5.5034471410   -1.0168374132    5.1841759678
H        4.1577006546   -2.0731627044    5.7200673139
H        1.3618708265   -0.0266713010   -0.5091097374
H        1.0750617644   -1.7417477063   -0.1986905674
H        0.1624463392   -0.5160133530    0.6960096495
H        2.2894080218    0.2620106603    1.8106620784
H        3.2194728564   -0.9200247327    0.9054872735
H        0.9044091028   -1.6690287886    2.7711764657
H        2.0393260943   -2.7847966346    1.9967382816
17   
torsion grid (-15,)
C        3.3943715589   -0.3444028098    4.3343194937
C        4.0422126751   -0.7355907325    5.6460050042
C        0.1562724601    0.6635933733    1.3621919967
C        1.3863409899    0.5410462413    2.2735353393
C        1.2282769066   -0.6938353494    3.1588801557
O        3.8988106398    0.3955780391    3.5130771508
O        2.1894878251   -0.9512582438    4.2244432685
H        3.4697329694   -0.3140850445    6.4781159797
H        5.0628425338   -0.3544748240    5.6733329915
H        4.0395448808   -1.8224487286    5.7636684540
H        0.2529922915    1.5315435191    0.7028209404
H        0.0371277223   -0.2220108667    0.7268280345
H       -0.7669264966    0.7858122148    1.9406644534
H        1.4826548935    1.4389289907    2.8915075827
H        2.2962682640    0.4723814832    1.6777000390
H        0.2697174657   -0.6555850059    3.6850030890
H        1.2293064462   -1.5963092534    2.5372069032
17   
torsion grid (0,)
C        3.3291633955   -0.2166055825    4.4413673852
C        4.0953472563   -0.8248841503    5.5978368055
C        0.1943833699    0.5926267403    1.2859735888
C        1.4005302131    0.5248656121    2.2345659639
C        1.1561717748   -0.5780626622    3.2629147900
O        3.7359889561    0.7032754369    3.7600129481
O        2.1490064470   -0.8624643835    4.2926190646
H        3.4605851239   -0.8951237394    6.4848548993
H        4.9753888960   -0.2170775018    5.8072618376
H        4.4068036273   -1.8407040908    5.3349069804
H        0.3418325628    1.3741047582    0.5343286500
H        0.0441970391   -0.3545887147    0.7545576302
H       -0.7316722441    0.8223828490    1.8260612391
H        1.5443043123    1.4865919573    2.7305921238
H        2.3130831706    0.3253423994    1.6690603284
H        0.2388109184   -0.3651508378    3.8217664359
H        1.0151092074   -1.5356450872    2.7506202054
17   
torsion grid (15,)
C        3.2431078498   -0.1327007701    4.5414419976
C        4.1342390547   -0.8718314565    5.5175343229
C        0.2493522645    0.5366552472    1.2365061748
C        1.4159697265    0.5013178423    2.2346822891
C        1.1003144756   -0.5122529627    3.3332114915
O        3.5116591608    0.9439493158    4.0462961765
O        2.1157981594   -0.8495191950    4.3235001558
H        3.5668453419   -1.1687228158    6.4034907084
H        4.9703448820   -0.2323485895    5.7998452867
H        4.5126281216   -1.7855460818    5.0486544290
H        0.4462026871    1.2638693383    0.4428609674
H        0.0908471564   -0.4390693203    0.7624225606
H       -0.6884822252    0.8265971069    1.7248910306
H        1.5818955890    1.4904819824    2.6610244085
H        2.3396746358    0.2230199530    1.7182841560
H        0.2296443519   -0.1757319956    3.9073197304
H        0.8489927943   -1.4792845953    2.8873349903
17   
torsion grid (30,)
C        3.1478164428   -0.0894459815    4.6305608155
C        4.1589285046   -0.8731052966    5.4387411534
C        0.2991539245    0.5076853801    1.2128603245
C        1.4476916235    0.4441384623    2.2298765980
C        1.0541703471   -0.4742219924    3.3856277586
O        3.2725819184    1.0773766798    4.3131020843
O        2.0845931489   -0.8732744791    4.3349257546
H        3.6662194153   -1.4084101847    6.2544162002
H        4.9147850021   -0.1933445995    5.8316595938
H        4.6374135664   -1.6200340530    4.7972547299
H        0.5543232966    1.1778865437    0.3862712908
H        0.0778502222   -0.4781211169    0.7875181291
H       -0.6209821164    0.8872640898    1.6724679698
H        1.6873352686    1.4401131234    2.5992718857
H        2.3514760358    0.0586484310    1.7436777899
H        0.2477041650   -0.0138776189    3.9683313832
H        0.6879732606   -1.4303943843    3.0027374152
17   
torsion grid (45,)
C        3.0719510889   -0.0847359307    4.6909054189
C        4.1691421302   -0.8386740127    5.4077827554
C        0.3163000480    0.5224536639    1.2138074576
C        1.4840756567    0.3616348023    2.1968430581
C        1.0468425802   -0.4801870383    3.3940857561
O        3.0558677456    1.1188591990    4.5169605311
O        2.0995675267   -0.9364003323    4.2888645903
H        3.7446526038   -1.5304376797    6.1398050615
H        4.8376701765   -0.1301045564    5.8964562375
H        4.7347168077   -1.4330099573    4.6830069638
H        0.6122309975    1.1416677067    0.3614380316
H       -0.0216855061   -0.4443816231    0.8232097138
H       -0.5422254113    1.0087282629    1.6914395377
H        1.8372889093    1.3360186090    2.5316676305
H        2.3244781545   -0.1344671537    1.6951956710
H        0.3161624082    0.0736147336    3.9950626090
H        0.5819981098   -1.4116956899    3.0627698526
17   
torsion grid (60,)
C        3.0073385376   -0.0951234145    4.7371574813
C        4.1672010554   -0.7833043664    5.4183089849
C        0.3147336645    0.5741302767    1.2335446033
C        1.5171687451    0.2547546614    2.1314640336
C        1.0705612643   -0.5193974617    3.3690627765
O        2.8448621069    1.1092800813    4.6808556748
O        2.1570355571   -1.0045238288    4.2036880646
H        3.8107156178   -1.5943299529    6.0584105753
H        4.7294179116   -0.0554811907    6.0030612242
H        4.8221889612   -1.2255541752    4.6607502943
H        0.6314678396    1.1295418367    0.3454510529
H       -0.1902647010   -0.3377044201    0.8940946835
H       -0.4229085491    1.1888316611    1.7618039171
H        2.0154930740    1.1762829922    2.4344070466
H        2.2459778555   -0.3498666661    1.5774267875
H        0.4135442180    0.1011431057    3.9880423444
H        0.5345008677   -1.4297961357    3.0917713315
17   
torsion grid (75,)
C        2.9708558423   -0.1076578553    4.7790366151
C        4.1652987627   -0.7485955681    5.4449892099
C        0.2992828258    0.6111691881    1.2460351280
C        1.5250012391    0.1765895714    2.0588333546
C        1.1087848648   -0.5334352572    3.3429737205
O        2.6877230038    1.0743655930    4.8345207624
O        2.2441593206   -1.0286950486    4.1002219741
H        3.8659261133   -1.6491641788    5.9871470907
H        4.6312913107   -0.0333360029    6.1224488354
H        4.8883949904   -1.0496932030    4.6801929957
H        0.6030539555    1.1148786702    0.3232400440
H       -0.3233535707   -0.2469375423    0.9672324924
H       -0.3261529080    1.3086477035    1.8142715496
H        2.1336519825    1.0482102901    2.3130334732
H        2.1497561327   -0.5013155622    1.4652075907
H        0.5234155698    0.1333332610    3.9825614826
H        0.5219445908   -1.4294810557    3.1273545572
17   
torsion grid (90,)
C        2.9581363771   -0.1129228658    4.8487894273
C        4.1719051989   -0.7578108305    5.4748436917
C        0.2695641680    0.6011549837    1.2240018161
C        1.5170856596    0.1471371522    1.9908891620
C        1.1499580728   -0.4815259558    3.3300210351
O        2.5927121677    1.0307973122    5.0446984996
O        2.3267853136   -0.9791852441    4.0178086816
H        3.9209668116   -1.7433716754    5.8750322786
H        4.5603365314   -0.1134883443    6.2632796156
H        4.9416344407   -0.8991730455    4.7093335523
H        0.5433113762    1.0489672504    0.2637590697
H       -0.4025403977   -0.2401989656    1.0190719587
H       -0.2943995565    1.3497113202    1.7915262481
H        2.1778289284    1.0014382433    2.1717530152
H        2.0817336086   -0.5825204593    1.3991500889
H        0.6344076336    0.2336692409    3.9746285654
H        0.5196076921   -1.3637951134    3.1907141704
17   
torsion grid (105,)
C        2.3890611611   -0.1619576080    4.8038946965
C        3.7630145397   -0.0066863540    5.4122539449
C        1.2538788785    1.0458259065    1.8279878658
C        1.2186387877   -0.4788725604    1.6770790754
C        1.2009320725   -1.2297063520    3.0041262811
O        1.3822925738    0.3922703651    5.2012887086
O        2.4334444029   -1.0015664900    3.7388308990
H        4.2237060339   -0.9844593775    5.5744646449
H        3.6855502301    0.5388159699    6.3524240740
H        4.4047865392    0.5483975659    4.7205744074
H        1.2251122440    1.5326372673    0.8477480276
H        0.4043721150    1.4064553143    2.4162611573
H        2.1680058062    1.3726332537    2.3332299039
H        2.0772063946   -0.8194295901    1.0861799818
H        0.3186101874   -0.7798303435    1.1252812517
H        0.3570272789   -0.9256208854    3.6261539728
H        1.1633947804   -2.3100230785    2.8415219835
17   
torsion grid (120,)
C        2.3900098791   -0.2283091090    4.8952969165
C        3.7827705592   -0.0178504314    5.4413899706
C        1.2526654951    1.0450194155    1.7298996886
C        1.2081013874   -0.4848128730    1.6522960003
C        1.1891177053   -1.1533041397    3.0213387109
O        1.3656208124    0.1469884881    5.4321600729
O        2.4404691006   -0.8860470043    3.7092816231
H        4.3309689226   -0.9634125007    5.4623830739
H        3.7207074063    0.4067118128    6.4430356852
H        4.3322900207    0.6656208127    4.7865273073
H        1.2507229394    1.4887421560    0.7291785375
H        0.3897046023    1.4383534609    2.2778351381
H        2.1573124802    1.3854078218    2.2434985463
H        2.0655251810   -0.8601169728    1.0814888471
H        0.3065051346   -0.8093005669    1.1171838729
H        0.3628306392   -0.7933274045    3.6366405073
H        1.1237117607   -2.2414799624    2.9298663781
17   
torsion grid (135,)
C        2.3964974397   -0.3198180251    4.9769092259
C        3.7919426936   -0.0157712731    5.4696798560
C        1.2705968834    1.0427116903    1.6279444530
C        1.1947139134   -0.4877459294    1.6405791528
C        1.1691743596   -1.0719239798    3.0465088325
O        1.3787483947   -0.1716844882    5.6255035668
O        2.4321749754   -0.7733087674    3.6988204597
H        4.4476785353   -0.8759837531    5.3108988277
H        3.7558969201    0.2423242380    6.5277304265
H        4.2064285868    0.8224185311    4.9008764801
H        1.2726028241    1.4277860247    0.6032264843
H        0.4160702786    1.4846412272    2.1526355051
H        2.1837209132    1.3926654514    2.1192139347
H        2.0411410576   -0.9129493185    1.0887207656
H        0.2841015665   -0.8247540067    1.1293327970
H        0.3553630208   -0.6576397299    3.6445612700
H        1.0721816631   -2.1620848884    3.0261588388
17   
torsion grid (150,)
C        2.4189608561   -0.4073224400    5.0316595310
C        3.8000873494   -0.0219560361    5.5076496595
C        1.2776901068    1.0372277906    1.5248832476
C        1.1810582203   -0.4880434926    1.6374653149
C        1.1516755451   -0.9800732929    3.0771436251
O        1.4317890097   -0.4873465847    5.7372888523
O        2.4216681837   -0.6461975599    3.6971434308
H        4.5347817806   -0.7641408470    5.1840931507
H        3.8000881755    0.0609252451    6.5941563568
H        4.0860749232    0.9376037243    5.0656887294
H        1.2795611193    1.3543227423    0.4771048202
H        0.4301248958    1.5234927162    2.0214387317
H        2.1967805196    1.4059466166    1.9899922442
H        2.0191473562   -0.9596594546    1.1111354742
H        0.2641836170   -0.8443392739    1.1513815714
H        0.3457648267   -0.5147746945    3.6492695729
H        1.0295975412   -2.0667821558    3.1318065637
17   
torsion grid (165,)
C        2.4487547135   -0.4830720083    5.0620027622
C        3.8082980070   -0.0367272544    5.5466197094
C        1.2779196916    1.0267791543    1.4262048889
C        1.1687621305   -0.4862156979    1.6446596057
C        1.1316977861   -0.8807852983    3.1129752783
O        1.5099144357   -0.7799301013    5.7760579136
O        2.4010495856   -0.5035350592    3.7082233817
H        4.5948963954   -0.6323538333    5.0756051299
H        3.8580123969   -0.1348358931    6.6307393847
H        3.9737909008    1.0077594517    5.2644910766
H        1.2862811311    1.2693995006    0.3587435431
H        0.4313636671    1.5525008112    1.8829325380
H        2.1970384648    1.4208326518    1.8695466890
H        2.0051769682   -1.0001835942    1.1566049311
H        0.2511345969   -0.8683756423    1.1805106272
H        0.3259492470   -0.3728585370    3.6500593219
H        0.9989939082   -1.9595156473    3.2433240953
17   
torsion grid (180,)
C        3.4975391345   -2.0672079866    3.9590133159
C        4.8373751970   -1.5745786305    4.4531581439
C        2.1128076125   -0.2336679705    0.4148620162
C        1.1963750335   -0.4319914297    1.6273720252
C        1.6482068012   -1.5508482801    2.5525245163
O        2.9770854393   -3.1219626401    4.2690677247
O        2.9383492182   -1.1777630967    3.1041586072
H        5.5437853010   -1.5326241675    3.6182280337
H        5.2146509688   -2.2534702420    5.2174779616
H        4.7459365623   -0.5625545066    4.8567370969
H        1.7421636547    0.5700064933   -0.2295424439
H        3.1279330481    0.0254154182    0.7292111397
H        2.1701328240   -1.1472016786   -0.1883625581
H        0.1796695980   -0.6744482866    1.2941574654
H        1.1248496673    0.4978184534    2.2037762060
H        0.9480443109   -1.7053614344    3.3785726255
H        1.7570493972   -2.5011660134    2.0202477414
