24   
torsion grid (-165,)
C       -2.3375660538   -2.2523554980    1.5195073395
C       -4.0902771606    1.7907518745    2.3859682179
C       -4.6604918787   -0.5555912277    2.5370767479
C       -5.3386814537    2.1443968069    2.8885534164
C       -5.9116989366   -0.2136718139    3.0409395124
C       -3.7180975975    0.4407089045    2.1957593284
C       -6.2462223034    1.1332959309    3.2139374860
C       -2.3831034291    0.2059483341    1.6621614404
C       -0.3696258669   -1.0527433062    0.8011804166
C       -1.7355858155   -0.9573053686    1.3446768077
C        1.4631038392    1.8828873953    1.1475382466
N       -2.7738810045   -3.3272209084    1.6411130244
N        0.5973869767   -0.2022593765    0.7263210855
O        0.2867821549    1.0641746320    1.2158191799
Cl      -7.8214683256    1.5574751182    3.8464900210
H       -3.3833615343    2.5768240988    2.1327782443
H       -4.4279655213   -1.6050005756    2.4139496008
H       -5.6080311811    3.1863990330    3.0274544667
H       -6.6275598164   -0.9873399356    3.2996640391
H       -1.8122237599    1.1065202780    1.4785865662
H       -0.0802207088   -2.0309102340    0.4224530409
H        1.1632237014    2.8577124637    1.5369267957
H        1.8032134178    1.9763722186    0.1119297385
H        2.2600365595    1.4589163814    1.7655786295
24   
torsion grid (-150,)
C       -2.2844877225   -2.2454700386    1.5651333356
C       -4.1690092477    1.7883638862    2.2162756707
C       -4.6043864714   -0.5556674059    2.6276298973
C       -5.3930999588    2.1323565616    2.7820330352
C       -5.8301535891   -0.2232023782    3.1962444955
C       -3.7438784398    0.4444117879    2.1219647325
C       -6.2200099200    1.1179790497    3.2706828940
C       -2.4417661449    0.2143823984    1.5103383982
C       -0.4373549968   -1.0072452745    0.6072754393
C       -1.7708324143   -0.9438640232    1.2377010777
C        1.4836823186    1.7893877131    1.3523850363
N       -2.6492900980   -3.3260923361    1.8104616909
N        0.5489458497   -0.1778049953    0.6231293065
O        0.2772842415    1.0158390550    1.2890742193
Cl      -7.7627812724    1.5304568869    3.9861211449
H       -3.5244180769    2.5772837861    1.8369261563
H       -4.3264292666   -1.6005447123    2.5839136135
H       -5.7047098596    3.1698784248    2.8456834142
H       -6.4832140502   -0.9994843187    3.5820285443
H       -1.9253620171    1.1182317984    1.2103279762
H       -0.1868088537   -1.9393603535    0.1042947422
H        1.2117870200    2.7106747163    1.8711899647
H        1.8472883210    2.0139753058    0.3451210701
H        2.2536918375    1.2539175853    1.9158820410
24   
torsion grid (-135,)
C       -2.2014771520   -2.2074935476    1.6283612207
C       -4.2529631193    1.7843429596    2.0840461998
C       -4.5520683226   -0.5387187899    2.6908820151
C       -5.4514432499    2.1189528306    2.7079725875
C       -5.7516621304   -0.2159651691    3.3179171427
C       -3.7744815444    0.4561100732    2.0577616233
C       -6.1962064303    1.1102351516    3.3236159489
C       -2.5066687267    0.2287719925    1.3760301489
C       -0.5021181046   -0.9380210698    0.4388650509
C       -1.8013254579   -0.9149546349    1.1508456673
C        1.5006536956    1.6821595333    1.5166144168
N       -2.4740643165   -3.2811364193    1.9955453445
N        0.5031070924   -0.1406385328    0.5380603261
O        0.2749102508    0.9516454046    1.3735065071
Cl      -7.7053168108    1.5109778746    4.1139894487
H       -3.6718598839    2.5686787226    1.6055011244
H       -4.2288851517   -1.5716387884    2.7015673413
H       -5.8056200826    3.1446538833    2.7191224282
H       -6.3417374567   -0.9875447259    3.8020797030
H       -2.0534751799    1.1269907052    0.9691263433
H       -0.2962719913   -1.8048125687   -0.1869122618
H        1.2604038056    2.5272068158    2.1647104241
H        1.8514632136    2.0382926455    0.5431019977
H        2.2689423132    1.0581057552    1.9833440618
24   
torsion grid (-120,)
C       -2.0782030299   -2.1270422087    1.6999935132
C       -4.3445225723    1.7753474127    1.9517686457
C       -4.4865945233   -0.5083464488    2.7372227653
C       -5.5222506020    2.0964862681    2.6213688828
C       -5.6648762514   -0.1992913167    3.4101496317
C       -3.7992953677    0.4742526509    1.9916445159
C       -6.1772343349    1.1007601301    3.3495683690
C       -2.5601769366    0.2538759100    1.2547396875
C       -0.5399752840   -0.8445094720    0.2985602438
C       -1.8025917951   -0.8618579742    1.0871003879
C        1.5681612233    1.5506853848    1.6521357199
N       -2.2505313873   -3.1789028133    2.1759123043
N        0.4930968689   -0.1014587251    0.4732042244
O        0.3307157597    0.8469431421    1.4812272724
Cl      -7.6590442085    1.4846646266    4.1983962709
H       -3.8335068138    2.5499467316    1.3853691983
H       -4.1090284522   -1.5209597152    2.8001661433
H       -5.9286388794    3.1019194199    2.5815062563
H       -6.1859133700   -0.9611821278    3.9810992351
H       -2.1804343657    1.1375950809    0.7481347066
H       -0.3998842487   -1.6148876487   -0.4582120675
H        1.3782480943    2.2799562601    2.4419817116
H        1.8534123567    2.0605813463    0.7265610066
H        2.3636853801    0.8644611438    1.9586505596
24   
torsion grid (-105,)
C       -1.9593595360   -1.9841911185    1.7756276978
C       -4.5005662066    1.7576932788    1.8072505175
C       -4.4355058817   -0.4508566815    2.7923788244
C       -5.6679931295    2.0535286847    2.5064034402
C       -5.6025193090   -0.1660101623    3.4954255673
C       -3.8590573275    0.5074261732    1.9311860793
C       -6.2137017447    1.0834748317    3.3498581516
C       -2.6400457363    0.3068655547    1.1531003147
C       -0.5913679952   -0.7076717624    0.1827039985
C       -1.8084932177   -0.7598977681    1.0500873646
C        1.6914035399    1.3520940767    1.7754727257
N       -2.0351346388   -3.0031235280    2.3405420555
N        0.4870934215   -0.0532008491    0.4128418488
O        0.4294813522    0.6988157766    1.5831765347
Cl      -7.6816220688    1.4357431361    4.2364735040
H       -4.0752405121    2.5128593574    1.1508117448
H       -3.9801779236   -1.4244408211    2.9226281559
H       -6.1497612341    3.0201741882    2.4009705406
H       -6.0388179933   -0.9086046840    4.1558092675
H       -2.3498629392    1.1653867875    0.5504297044
H       -0.5532882017   -1.3321089818   -0.7087080640
H        1.5812793327    1.9239239741    2.6987462467
H        1.9107680784    2.0234122554    0.9391411374
H        2.4947937934    0.6167823587    1.8827031580
24   
torsion grid (-90,)
C       -1.8204046818   -1.7665060723    1.8704171401
C       -4.7055069008    1.7137368492    1.6725273943
C       -4.3864401736   -0.3670648261    2.8634070307
C       -5.8742785768    1.9625816346    2.3877604913
C       -5.5534041294   -0.1289767826    3.5840767415
C       -3.9376061117    0.5507872645    1.8898790007
C       -6.2921834912    1.0336244733    3.3430026178
C       -2.7295984193    0.3909023370    1.0831963017
C       -0.6367088799   -0.5113009854    0.1076313261
C       -1.7989267820   -0.5941817629    1.0501654265
C        1.8785435897    1.0868100190    1.8625473606
N       -1.7980939345   -2.7450446551    2.5066276314
N        0.4983720745    0.0267339846    0.3584963996
O        0.5637821749    0.5584223538    1.6426528757
Cl      -7.7599334169    1.3285214104    4.2509801315
H       -4.3801785145    2.4374166490    0.9291266025
H       -3.8307250204   -1.2733289454    3.0682276290
H       -6.4545328149    2.8620776887    2.2093345363
H       -5.8908632898   -0.8406254977    4.3308247821
H       -2.5460352084    1.2108757861    0.3906476396
H       -0.7210456660   -0.9545970175   -0.8832466921
H        1.8590480527    1.4928743293    2.8754805858
H        2.1012799245    1.8799575400    1.1418138313
H        2.6301295578    0.2948089608    1.7895651186
24   
torsion grid (-75,)
C       -1.6789816581   -1.4939838033    1.9678028032
C       -4.9166585995    1.6377889685    1.5532742250
C       -4.3361032053   -0.2590845927    2.9374281017
C       -6.0943163940    1.8231145382    2.2730814191
C       -5.5102466238   -0.0827111187    3.6641020320
C       -4.0147800690    0.5984313326    1.8634558865
C       -6.3842361391    0.9561555194    3.3287950639
C       -2.8104821882    0.4954533915    1.0423921995
C       -0.6615271881   -0.2592716599    0.0810746265
C       -1.7741852819   -0.3789473104    1.0744389356
C        2.0814798838    0.7854115389    1.9048802791
N       -1.5747420264   -2.4282463283    2.6592296960
N        0.5292296831    0.1428865675    0.3309302598
O        0.7073978412    0.4462259692    1.6762230402
Cl      -7.8601972794    1.1733977797    4.2451751779
H       -4.6907175921    2.3140935777    0.7324042603
H       -3.6744844082   -1.0692932361    3.2162633184
H       -6.7786246987    2.6270707976    2.0220849998
H       -5.7490262931   -0.7471059382    4.4884229328
H       -2.7308222838    1.2648412302    0.2754282850
H       -0.8554189899   -0.4919965606   -0.9643899307
H        2.1433735668    1.0328250203    2.9660259291
H        2.3708804156    1.6486726064    1.2973898273
H        2.7314468283   -0.0654498577    1.6790643737
24   
torsion grid (-60,)
C       -2.2439056916   -2.3543567392    1.8998743016
C       -4.1748934536    1.7245992299    1.6572944413
C       -4.3897355192   -0.3591228413    2.8666832880
C       -5.2893806271    2.2398718441    2.3137899988
C       -5.5042592986    0.1460454107    3.5300235805
C       -3.7003781301    0.4202974184    1.9123848232
C       -5.9499201138    1.4418199358    3.2505096571
C       -2.5245911316   -0.0166842503    1.1656156373
C       -0.6748081824   -1.3588792975    0.2536257844
C       -1.8425310401   -1.1919831558    1.1630591747
C        1.9293666428   -2.4796317438    2.2310842064
N       -2.5757028968   -3.3230572988    2.4585784544
N        0.5147124819   -1.7077314822    0.5856396560
O        0.6238454125   -1.9606342224    1.9474820237
Cl      -7.3523638679    2.0725690993    4.0869013597
H       -3.6597314015    2.3474077087    0.9299997521
H       -4.0630854219   -1.3643087164    3.1000301911
H       -5.6422896337    3.2447010414    2.1055228443
H       -6.0274684031   -0.4609838090    4.2619513257
H       -2.1166540222    0.7444309866    0.5012062499
H       -0.7941419009   -1.1032804722   -0.7974499705
H        1.9569441410   -2.6113740360    3.3140321421
H        2.7009963874   -1.7705671914    1.9152138901
H        2.0783758598   -3.4420547984    1.7319959404
24   
torsion grid (-45,)
C       -2.0704844083   -2.1765839681    2.0973392752
C       -4.2984407071    1.7133629795    1.5746272114
C       -4.3640415114   -0.2906524116    2.9292632336
C       -5.4486020196    2.1916633960    2.1957410988
C       -5.5135882524    0.1787383300    3.5578768238
C       -3.7301936379    0.4678089143    1.9202358434
C       -6.0513145313    1.4158519271    3.1887563195
C       -2.5245937933    0.0703569485    1.2030473519
C       -0.5779883694   -1.1589227714    0.3723666087
C       -1.7447122218   -1.0443277734    1.2781989587
C        1.9571630614   -2.7508454031    2.1087637492
N       -2.3710110049   -3.1107808006    2.7271771701
N        0.5878659972   -1.6353084688    0.6300092797
O        0.6946701372   -2.0960102377    1.9348652256
Cl      -7.4975840306    2.0004366849    3.9820802298
H       -3.8282424571    2.3189345838    0.8036271577
H       -3.9671327480   -1.2509732049    3.2311847950
H       -5.8731375198    3.1508670953    1.9177077491
H       -5.9934907825   -0.4114819710    4.3320068312
H       -2.1794969597    0.8125824813    0.4838344804
H       -0.6717351217   -0.7337449435   -0.6250252406
H        1.9853470779   -3.0454065196    3.1590890127
H        2.7791653856   -2.0638788466    1.8841107040
H        2.0234414576   -3.6360596590    1.4687198645
24   
torsion grid (-30,)
C       -1.9331851570   -2.0117273882    2.3022595435
C       -4.3764920516    1.6954220405    1.5187504329
C       -4.3606663114   -0.2337831094    2.9803901370
C       -5.5558599914    2.1489087542    2.1015574322
C       -5.5396644609    0.2115860855    3.5706490904
C       -3.7508717090    0.4999725818    1.9379878103
C       -6.1323301673    1.3990409700    3.1297809313
C       -2.5192771692    0.1300075024    1.2539697773
C       -0.4981838761   -1.0008388533    0.5017710145
C       -1.6683763943   -0.9290100783    1.3971407428
C        1.9677060029   -2.9528587548    1.9585252885
N       -2.2152405342   -2.8886763384    3.0168959702
N        0.6362474231   -1.5849683215    0.6701437561
O        0.7311728646   -2.2326784292    1.8922832821
Cl      -7.6151297909    1.9532974466    3.8753802785
H       -3.9275039269    2.2808637649    0.7200519446
H       -3.9223947572   -1.1561114127    3.3372631151
H       -6.0234611664    3.0692996981    1.7671593087
H       -6.0002078296   -0.3595869785    4.3704088349
H       -2.2169108397    0.8456734933    0.4902166640
H       -0.5638656337   -0.4435904148   -0.4307322523
H        1.9810950495   -3.4082404485    2.9500550519
H        2.8154641068   -2.2702723351    1.8418965548
H        2.0033700467   -3.7288389037    1.1875849441
24   
torsion grid (-15,)
C       -3.0037681812   -1.9072043008    0.4048071615
C       -4.0063028802    2.0562934330    2.2937404980
C       -4.5914193480   -0.2836361556    2.4918732110
C       -4.8917370975    2.3822219278    3.3161070840
C       -5.4793576170    0.0321534053    3.5159427601
C       -3.8318078711    0.7239587280    1.8549520233
C       -5.6267974683    1.3614100895    3.9242883788
C       -2.8745596027    0.5115013190    0.7789566404
C       -1.4551792322   -0.4364432318   -0.9468531774
C       -2.4541747498   -0.6113355154    0.1190144734
C       -0.1640186930   -3.4924458747   -1.9635916389
N       -3.5157068369   -2.9197555419    0.6726948859
N       -0.7349437386   -1.2952469765   -1.5813674758
O       -0.9543121957   -2.5997438324   -1.1698110650
Cl      -6.7451709422    1.7517580273    5.2120572071
H       -3.4343325906    2.8519942012    1.8226236812
H       -4.4968760085   -1.3188529473    2.1936410996
H       -5.0128206190    3.4108509150    3.6398856545
H       -6.0576279562   -0.7498011613    3.9977132565
H       -2.3972734708    1.4306622746    0.4416860061
H       -1.2590768551    0.5900819080   -1.2505626064
H       -0.3825637022   -4.4889150730   -1.5763467640
H        0.9009712326   -3.2660932452   -1.8503606368
H       -0.4502761474   -3.4259584632   -3.0178867544
24   
torsion grid (0,)
C       -2.8064521955   -1.9340905956    0.6016930805
C       -4.0689780300    2.0648918874    2.2400178308
C       -4.5507785133   -0.2879016866    2.5417154411
C       -4.9957269654    2.3988375086    3.2222109557
C       -5.4800593081    0.0358901500    3.5258125495
C       -3.8213330640    0.7220252504    1.8736906569
C       -5.6993302703    1.3753032988    3.8623347763
C       -2.8281028525    0.5041141751    0.8323626287
C       -1.3163654318   -0.4483063094   -0.8066629363
C       -2.3401351857   -0.6264461890    0.2329626377
C       -0.2874521154   -3.4895289041   -2.1261668188
N       -3.2380786440   -2.9555662455    0.9613233179
N       -0.6806837161   -1.3002320781   -1.5344418128
O       -1.0400708106   -2.6131805088   -1.2793839727
Cl      -6.8690910240    1.7754254084    5.1003690847
H       -3.5223066533    2.8625751546    1.7429251306
H       -4.3995666254   -1.3309782183    2.2998704385
H       -5.1728716452    3.4353132177    3.4904051902
H       -6.0344614185   -0.7477709379    4.0322568436
H       -2.3897231302    1.4288600434    0.4597758439
H       -1.0302932456    0.5809508237   -1.0145573281
H       -0.6307340599   -4.4943332362   -1.8747415858
H        0.7839394020   -3.3935810969   -1.9233758670
H       -0.4892154437   -3.2727640304   -3.1798794598
24   
torsion grid (15,)
C       -2.6037160446   -1.9405244816    0.7925122421
C       -4.1224740446    2.0660191082    2.1801506200
C       -4.5029348115   -0.2907123570    2.5789550331
C       -5.0902146448    2.3982415110    3.1227737601
C       -5.4731429426    0.0312719586    3.5233400816
C       -3.8031568479    0.7214054705    1.8833070644
C       -5.7631076029    1.3726134455    3.7918322125
C       -2.7746008543    0.5022983612    0.8766707837
C       -1.1717392046   -0.4595190204   -0.6722971717
C       -2.2227517092   -0.6306580084    0.3430448125
C       -0.4513816356   -3.4690303632   -2.2434995550
N       -2.9446456806   -2.9672220358    1.2269889441
N       -0.6315434255   -1.3036704232   -1.4813767993
O       -1.1461383063   -2.5840236860   -1.3570586940
Cl      -6.9833385951    1.7722852095    4.9803967630
H       -3.6009689100    2.8657374214    1.6598120229
H       -4.2957627266   -1.3352091273    2.3901624715
H       -5.3227468963    3.4360464987    3.3383029689
H       -6.0039308652   -0.7544575448    4.0514267418
H       -2.3733324213    1.4277660976    0.4657461678
H       -0.7858284166    0.5510808535   -0.7915640654
H       -0.9158979223   -4.4452299678   -2.0953099608
H        0.6117265849   -3.5140721900   -1.9872592665
H       -0.5722031163   -3.1446280297   -3.2819717189
24   
torsion grid (30,)
C       -2.3822476784   -1.9342928513    0.9819206716
C       -4.1661697514    2.0480014781    2.1130484390
C       -4.4390007526   -0.3061697206    2.6031989868
C       -5.1731706654    2.3707427189    3.0175227604
C       -5.4482999167    0.0058085633    3.5091724778
C       -3.7727945343    0.7106776802    1.8827751928
C       -5.8111111216    1.3408561410    3.7133594358
C       -2.7089477093    0.4980797515    0.9108371498
C       -1.0146786596   -0.4750100003   -0.5425439895
C       -2.0923639967   -0.6314483584    0.4525431318
C       -0.6440997291   -3.4190162779   -2.3338964856
N       -2.6169144873   -2.9641647586    1.4754674649
N       -0.5810481515   -1.3027342185   -1.4276385314
O       -1.2572105159   -2.5129337155   -1.4091432396
Cl      -7.0802605561    1.7267580945    4.8545123814
H       -3.6720414983    2.8503031553    1.5704706260
H       -4.1750989938   -1.3459617655    2.4641597510
H       -5.4624426344    3.4035406395    3.1825543576
H       -5.9534636556   -0.7829015095    4.0575256502
H       -2.3472217194    1.4199630394    0.4567300901
H       -0.5280623479    0.4975458200   -0.5843668016
H       -1.2479987532   -4.3267234690   -2.2885659725
H        0.3857447816   -3.6370129341   -2.0343177470
H       -0.6591349229   -3.0020907839   -3.3458693677
24   
torsion grid (45,)
C       -2.1693771862   -1.9215372326    1.1806630682
C       -4.2106035820    2.0168816346    2.0172820726
C       -4.3717515947   -0.3173240629    2.6296752109
C       -5.2585733428    2.3314303236    2.8776854438
C       -5.4213659841   -0.0147430051    3.4921367069
C       -3.7402296051    0.6935276620    1.8716445395
C       -5.8600330509    1.3075851500    3.6133968391
C       -2.6379284741    0.4824936818    0.9408559551
C       -0.8439078770   -0.5089420139   -0.3960752350
C       -1.9560271542   -0.6386662207    0.5740873461
C       -0.8610108037   -3.3248519264   -2.4077423050
N       -2.3183818330   -2.9459111138    1.7175027159
N       -0.5247053557   -1.3040532163   -1.3544194206
O       -1.3609206467   -2.4096575835   -1.4251905216
Cl      -7.1795797706    1.6844506485    4.6995409542
H       -3.7453721779    2.8147495770    1.4435279144
H       -4.0492453615   -1.3473642928    2.5536175485
H       -5.6072644743    3.3541210579    2.9781586220
H       -5.8989514488   -0.7996718479    4.0698611860
H       -2.3118632075    1.3916886510    0.4365393438
H       -0.2446156225    0.3985665831   -0.3559238060
H       -1.5838141728   -4.1419657454   -2.4327200763
H        0.1235468312   -3.7033071732   -2.1161420073
H       -0.8008338009   -2.8401635006   -3.3873251281
24   
torsion grid (60,)
C       -1.9618390548   -1.9123911976    1.4231893632
C       -4.2490493553    1.9565803094    1.8902504258
C       -4.2933438571   -0.3299521042    2.6788930110
C       -5.3349907474    2.2749313795    2.7013690490
C       -5.3800450087   -0.0231195888    3.4927171546
C       -3.7019562340    0.6561260198    1.8595763604
C       -5.8954549160    1.2768825874    3.5016295254
C       -2.5633859516    0.4357560789    0.9729528360
C       -0.6713301026   -0.5808438532   -0.2283933640
C       -1.8111477032   -0.6687104626    0.7262935628
C       -1.1011610265   -3.1691411950   -2.4792184653
N       -2.0413182191   -2.9191152771    2.0069506298
N       -0.4720698625   -1.3200235355   -1.2584510590
O       -1.4539414599   -2.2926662974   -1.4014648388
Cl      -7.2619243224    1.6577807315    4.5272412068
H       -3.8148142587    2.7334913350    1.2656664731
H       -3.9122596905   -1.3429687550    2.6883548185
H       -5.7436151933    3.2801462342    2.7143393641
H       -5.8278819847   -0.7879618783    4.1191378345
H       -2.2765820123    1.3156158995    0.3978548706
H        0.0494053196    0.2251452279   -0.1047779361
H       -1.9300087744   -3.8745292694   -2.5588599448
H       -0.1735652799   -3.7039448999   -2.2532555827
H       -0.9911903602   -2.6059611853   -3.4112639713
24   
torsion grid (75,)
C       -2.7750774801   -1.6415490019    0.1851310913
C       -3.6775969110    1.5805116097    3.2288328862
C       -4.7800449063   -0.2235348785    2.0538970728
C       -4.8528541402    1.8754842276    3.9152179768
C       -5.9604282106    0.0627737191    2.7339801942
C       -3.6105229942    0.5306700274    2.2890154038
C       -5.9922634303    1.1090893957    3.6612364673
C       -2.3259117146    0.3097120995    1.6286417724
C       -0.5259412983   -0.6120494959    0.2060572596
C       -1.9375497820   -0.6014393116    0.7022063903
C       -0.7037887959    0.4628205294   -3.0744410608
N       -3.4149715132   -2.5185318304   -0.2428959395
N       -0.1358069327   -0.2412134165   -0.9569655341
O       -1.1953059622    0.1647930816   -1.7609760667
Cl      -7.4799301906    1.4634074280    4.5137330805
H       -2.7909029911    2.1782556732    3.4255814545
H       -4.7805484776   -1.0374655614    1.3401260669
H       -4.8880434664    2.6862921329    4.6356327228
H       -6.8551228038   -0.5224492119    2.5470220712
H       -1.5473073038    1.0090950443    1.9305565706
H        0.2716183825   -0.9217677784    0.8789201829
H       -1.5771957601    0.7916324704   -3.6402338870
H       -0.2715368781   -0.4301148982   -3.5361804470
H        0.0433821505    1.2616323435   -3.0334898049
24   
torsion grid (90,)
C       -2.7790398934   -1.9152045212    0.3546119009
C       -3.6712362029    1.6559288548    2.9874464481
C       -4.7478496081   -0.3316786466    2.1295162784
C       -4.8331882700    2.0112101123    3.6680254892
C       -5.9150609081    0.0125424562    2.8055547607
C       -3.5984534782    0.4835403885    2.2067344645
C       -5.9524035863    1.1816144825    3.5719793185
C       -2.3296500626    0.2078619794    1.5360499391
C       -0.5583399360   -0.8588915146    0.1693293239
C       -1.9458150635   -0.8154074191    0.7339885302
C       -0.7397671891    0.7695393436   -2.8754566531
N       -3.4128148267   -2.8387952078    0.0258079409
N       -0.1841476015   -0.3502672756   -0.9450966326
O       -1.2257790517    0.2801662157   -1.6183308999
Cl      -7.4217625952    1.6109824813    4.4218496181
H       -2.8002299581    2.3023931993    3.0622299074
H       -4.7430893293   -1.2407368935    1.5416146468
H       -4.8733525790    2.9167338545    4.2647223668
H       -6.7937226907   -0.6211816926    2.7398164252
H       -1.5617688413    0.9599859463    1.7104038409
H        0.2253947407   -1.3776918151    0.7189192776
H       -1.5968494102    1.2557866532   -3.3447701045
H       -0.3870841106   -0.0561828932   -3.5009649383
H        0.0676054076    1.4925931273   -2.7221353428
24   
torsion grid (105,)
C       -2.7784935316   -2.1329252539    0.5281641716
C       -3.6773548754    1.7005309248    2.7548822992
C       -4.7117321675   -0.4176146584    2.2141541758
C       -4.8176132436    2.1015775236    3.4463866385
C       -5.8567914215   -0.0281068829    2.9029814748
C       -3.5946341449    0.4405627949    2.1257810704
C       -5.9050454025    1.2281345415    3.5157690735
C       -2.3512277884    0.1267854269    1.4277800294
C       -0.6171278123   -1.0473505812    0.0925855624
C       -1.9609729213   -0.9785655457    0.7450248924
C       -0.7342259862    1.0336200909   -2.6725695368
N       -3.4006425118   -3.0995327494    0.3240074656
N       -0.2442147504   -0.4224459916   -0.9631561357
O       -1.2263716421    0.4236771722   -1.4718182027
Cl      -7.3479800779    1.7120177161    4.3809962962
H       -2.8305122145    2.3801444742    2.6999177991
H       -4.6989001950   -1.3941675010    1.7469148189
H       -4.8654854462    3.0744760552    3.9247547554
H       -6.7112784471   -0.6943463295    2.9654512501
H       -1.6081709690    0.9211177603    1.4630249738
H        0.1219534638   -1.7446526280    0.4843768542
H       -1.5402463394    1.6851171567   -3.0153041906
H       -0.5168855181    0.2746707053   -3.4304855322
H        0.1655603267    1.6220288447   -2.4667307021
24   
torsion grid (120,)
C       -2.7938328415   -2.2821261849    0.6732333393
C       -3.7269414931    1.7283276471    2.5376667813
C       -4.6949841633   -0.4751060197    2.2917591540
C       -4.8442280485    2.1577862525    3.2488656307
C       -5.8164580640   -0.0572675799    3.0019442079
C       -3.6235077823    0.4104342876    2.0435695202
C       -5.8864791692    1.2564378395    3.4769520558
C       -2.4089220226    0.0728494073    1.3102454877
C       -0.7136008061   -1.1923733175   -0.0040303054
C       -2.0063393795   -1.0866341892    0.7267617278
C       -0.6615428377    1.2105089654   -2.5015446147
N       -3.3908805159   -3.2821186876    0.5947170136
N       -0.3019884836   -0.4844559361   -0.9935791778
O       -1.1698457084    0.5514772046   -1.3340423576
Cl      -7.2995708628    1.7774549012    4.3687805904
H       -2.9155599584    2.4295392619    2.3589870886
H       -4.6644591111   -1.4961259783    1.9332876431
H       -4.9092222140    3.1747725737    3.6218901832
H       -6.6353055578   -0.7450370227    3.1874207451
H       -1.7012259854    0.8930684110    1.2197536561
H       -0.0593503398   -2.0292368435    0.2357079759
H       -1.3739259693    2.0098415941   -2.7145280704
H       -0.6128331932    0.5166364666   -3.3464437008
H        0.3307741385    1.6295655782   -2.3071864245
24   
torsion grid (135,)
C       -2.7889655908   -2.3645695839    0.7919292246
C       -3.7968379183    1.7376412985    2.3764006156
C       -4.6811158159   -0.5141893349    2.3557295260
C       -4.8853838149    2.1745808655    3.1259717196
C       -5.7733121989   -0.0876996733    3.1051841395
C       -3.6657811319    0.3905290831    1.9739395507
C       -5.8718208142    1.2540894104    3.4876030330
C       -2.4845327481    0.0516847246    1.1905506090
C       -0.8159183242   -1.2735212744   -0.1204372051
C       -2.0577716603   -1.1355290827    0.6758841444
C       -0.5504065047    1.3435554876   -2.3829572656
N       -3.3422433478   -3.3903646052    0.8507857855
N       -0.3458311787   -0.5129114464   -1.0460103326
O       -1.0829461495    0.6535909457   -1.2441280177
Cl      -7.2477771223    1.7856901781    4.4295499872
H       -3.0296951351    2.4544678684    2.0943635151
H       -4.6294632023   -1.5573055894    2.0716185592
H       -4.9713219504    3.2134964029    3.4273460627
H       -6.5480937554   -0.7911004771    3.3929902039
H       -1.8270310744    0.8920492664    0.9925679519
H       -0.2529773772   -2.1981295360   -0.0040057820
H       -1.1547029083    2.2472565578   -2.4830420835
H       -0.6426755145    0.7290467308   -3.2837176726
H        0.4991696653    1.6054032600   -2.2171664734
24   
torsion grid (150,)
C       -2.7815156449   -2.3991867201    0.9062005081
C       -3.8827391597    1.7510824380    2.2513740028
C       -4.6665004055   -0.5307476071    2.4302182275
C       -4.9321689324    2.1922708509    3.0519085197
C       -5.7203228120   -0.1008327436    3.2308343182
C       -3.7201513318    0.3869814094    1.9217779564
C       -5.8488178027    1.2574025276    3.5390333818
C       -2.5827083178    0.0523238249    1.0751790078
C       -0.9450629978   -1.3233074626   -0.2483163971
C       -2.1293506712   -1.1518271928    0.6163829349
C       -0.4150308233    1.4400712570   -2.2852608011
N       -3.2702200894   -3.4395874505    1.1055601780
N       -0.4089314378   -0.5383207212   -1.1185807844
O       -1.0102417811    0.7162595494   -1.1991695408
Cl      -7.1755446280    1.7924814889    4.5468038085
H       -3.1696798589    2.4780938798    1.8708565919
H       -4.5912100974   -1.5866399927    2.2058048952
H       -5.0416802606    3.2439075573    3.2961925836
H       -6.4418940336   -0.8143771406    3.6156990346
H       -1.9898466023    0.9057986813    0.7690552033
H       -0.4718498220   -2.3032158726   -0.2272109062
H       -0.9132381344    2.4114315506   -2.2953165795
H       -0.5863274053    0.9199661853   -3.2325298372
H        0.6589403606    1.5658884028   -2.1179731569
24   
torsion grid (165,)
C       -2.7625261185   -2.4233520174    0.9849675074
C       -3.9917315896    1.7470257108    2.1092763278
C       -4.6343290512   -0.5521080582    2.5042040163
C       -4.9984320003    2.1905832189    2.9613578129
C       -5.6449802662   -0.1188186975    3.3569542994
C       -3.7808285825    0.3720112071    1.8601301629
C       -5.8227900816    1.2497760047    3.5836039370
C       -2.6937794183    0.0382890443    0.9496828240
C       -1.0839659692   -1.3696803339   -0.3937243157
C       -2.2076463410   -1.1732098223    0.5384784498
C       -0.2507543889    1.4993281710   -2.1741870703
N       -3.1717307777   -3.4655035474    1.3120284856
N       -0.4793284092   -0.5709317618   -1.2063916090
O       -0.9448130457    0.7414104882   -1.1729358730
Cl      -7.0936316677    1.7900764756    4.6582017793
H       -3.3510606053    2.4794248689    1.6245750872
H       -4.5200263962   -1.6162680274    2.3460804528
H       -5.1457704393    3.2502314889    3.1429659765
H       -6.2946076955   -0.8379134207    3.8456498795
H       -2.1783513774    0.8961014535    0.5383599325
H       -0.6984249770   -2.3850034550   -0.4604367318
H       -0.6438026588    2.5148477202   -2.0962230311
H       -0.4524663885    1.0924225924   -3.1695057629
H        0.8257167831    1.4931480804   -1.9792879874
24   
torsion grid (180,)
C       -2.3715551849   -2.2612585573    1.4629274267
C       -4.0323339269    1.7606655717    2.5609135366
C       -4.6973266050   -0.5636910507    2.4619383220
C       -5.3014800756    2.1238868971    3.0004647868
C       -5.9697485485   -0.2123357515    2.9021294814
C       -3.6960503964    0.4169174342    2.2796154155
C       -6.2668975767    1.1281312655    3.1686545649
C       -2.3333873848    0.1735351551    1.8260228956
C       -0.3066550372   -1.1016177414    1.0097835107
C       -1.7047751897   -0.9856683001    1.4557589844
C        1.4134280383    1.9232365142    0.9517183029
N       -2.8604458048   -3.3200521386    1.4488950122
N        0.6380706485   -0.2364985295    0.8541279019
O        0.2780294489    1.0721081775    1.1654354952
Cl      -7.8687880070    1.5636651577    3.7212414648
H       -3.2799023198    2.5342667329    2.4301173992
H       -4.4947508106   -1.6077745956    2.2639811559
H       -5.5425045463    3.1608421207    3.2108509641
H       -6.7309377411   -0.9737556004    3.0392173109
H       -1.7168456612    1.0602982046    1.7715506125
H        0.0214816476   -2.1070113780    0.7542965037
H        1.0754746927    2.9301190458    1.2042910932
H        1.7295390999    1.8815726795   -0.0947104998
H        2.2401551588    1.6269646070    1.6040415614
