20   
torsion grid (-165,)
C       -0.0948706989    1.7585135698    1.0155893986
C       -0.8386585361   -0.6201446062    4.3317207863
C        0.5943071758    2.8178873912    1.3725256662
C       -0.8020145072    0.7050059116    0.6754521759
C       -3.2278413785    0.0261249449    0.7442151062
C       -0.3873967780   -1.2728082194    3.0949654334
C       -1.4873071032   -1.3075999533    2.0161196853
C       -1.9032587897    0.0920212336    1.5203276346
N       -1.2207230600   -0.1022171939    5.3007403377
H        0.2654291000    3.8211015883    1.1064640802
H        1.5153168005    2.7294302011    1.9463920152
H       -0.5932286814    0.2175801712   -0.2803033311
H       -4.0275684121   -0.3703000986    1.3787791423
H       -3.5253422182    1.0202146532    0.3977022793
H       -3.1407265345   -0.6241442736   -0.1347781668
H        0.4894530394   -0.7310833025    2.7247105389
H       -0.0629875976   -2.2880111740    3.3458892347
H       -1.1229822704   -1.9087456528    1.1746988304
H       -2.3637786685   -1.8249324098    2.4217230338
H       -2.0549967832    0.7325547879    2.3955500395
20   
torsion grid (-150,)
C       -0.0702426024    1.7756788413    0.8985216675
C       -1.1078744934   -0.7689176084    4.3878378482
C        0.6584232694    2.8197905428    1.2215438381
C       -0.8153754618    0.7383670256    0.5910655888
C       -3.2336550044    0.0520955359    0.8735375011
C       -0.4289356976   -1.2592297050    3.1805124578
C       -1.3673903715   -1.2985916984    1.9588945356
C       -1.8386737446    0.1059012357    1.5146604229
N       -1.6688011558   -0.3815749685    5.3304536248
H        0.3169542643    3.8321879424    1.0120206709
H        1.6271964907    2.7093979215    1.7061608538
H       -0.6943205112    0.2773202595   -0.3923839788
H       -3.9652569120   -0.3429716570    1.5858459768
H       -3.5587087493    1.0498678649    0.5639078373
H       -3.2410116088   -0.5941862958   -0.0128463785
H        0.4268443401   -0.6049395807    2.9794078691
H       -0.0318728137   -2.2567050757    3.3959700618
H       -0.8450985915   -1.8011259312    1.1374761530
H       -2.2357738961   -1.9178386742    2.2088304241
H       -1.9156026523    0.7359215943    2.4070669464
20   
torsion grid (-135,)
C       -0.0552396367    1.8141690852    0.7733582124
C       -1.3828956144   -0.9470080537    4.3954589274
C        0.6912835953    2.8630211719    1.0353930282
C       -0.8143946840    0.7707673095    0.5276479018
C       -3.2004302208    0.0924775289    1.0187442926
C       -0.5029827132   -1.3031698019    3.2733544420
C       -1.2497391308   -1.2846338913    1.9255089694
C       -1.7530267606    0.1309273610    1.5326219077
N       -2.1052986942   -0.6650344139    5.2625121510
H        0.3281134309    3.8736876142    0.8559276723
H        1.6985132658    2.7579092428    1.4355237347
H       -0.7719745230    0.3121701515   -0.4633583289
H       -3.8652190670   -0.3116398521    1.7891153633
H       -3.5477273697    1.0960884878    0.7554081916
H       -3.2894635577   -0.5402699673    0.1272043121
H        0.3330093812   -0.5948197734    3.2544797424
H       -0.0834970652   -2.2951796909    3.4713687480
H       -0.5760786354   -1.6782384197    1.1577184965
H       -2.0946273144   -1.9782594885    1.9901176412
H       -1.7475005879    0.7574829687    2.4303785149
20   
torsion grid (-120,)
C       -0.0557337112    1.8592363082    0.6462912637
C       -1.6475745405   -1.1237273758    4.3537943466
C        0.6917962513    2.9243055841    0.8287682528
C       -0.8140400251    0.7995824286    0.4830198843
C       -3.1396815637    0.1345982044    1.1810887646
C       -0.5980642910   -1.3813769919    3.3568802632
C       -1.1291190039   -1.2628796158    1.9149348646
C       -1.6539682995    0.1624181050    1.5747632724
N       -2.5027684685   -0.9143155359    5.1140123503
H        0.2974877407    3.9268311160    0.6702575504
H        1.7323644268    2.8406433053    1.1384819174
H       -0.8536743646    0.3287393162   -0.5022159645
H       -3.7407976120   -0.2925897070    1.9904915577
H       -3.5076047224    1.1440528542    0.9742973769
H       -3.2963549144   -0.4738860910    0.2823468213
H        0.2149797347   -0.6659759128    3.5226218642
H       -0.1925818556   -2.3822192378    3.5394954209
H       -0.3119786967   -1.5400495952    1.2420742396
H       -1.9223971894   -2.0034197786    1.7708219857
H       -1.5594647968    0.7904801885    2.4662578885
20   
torsion grid (-105,)
C       -0.0596963517    1.8932707565    0.5272045248
C       -1.9027026903   -1.3161475320    4.2736370280
C        0.6839076686    2.9724986708    0.6218432884
C       -0.8116651574    0.8194840886    0.4538223672
C       -3.0674442543    0.1841864548    1.3442999856
C       -0.7133157632   -1.4597272131    3.4211709601
C       -1.0129904435   -1.2219116558    1.9275358564
C       -1.5550649843    0.2039576542    1.6260785694
N       -2.8579714674   -1.1962072896    4.9264591268
H        0.2622557104    3.9647808776    0.4693127177
H        1.7472079488    2.9109211201    0.8486761947
H       -0.9246587876    0.3218819470   -0.5123414799
H       -3.6147328570   -0.2593677982    2.1817578689
H       -3.4459841563    1.1981823564    1.1843345400
H       -3.2845902217   -0.4039112038    0.4448542601
H        0.0423139277   -0.7480428444    3.7710280077
H       -0.3069391375   -2.4651148164    3.5749872362
H       -0.0739017460   -1.3879716444    1.3908652145
H       -1.7193426823   -1.9800481177    1.5739971092
H       -1.3738604569    0.8397337583    2.4989605450
20   
torsion grid (-90,)
C       -0.7563399011    1.5258823287    0.0449682243
C       -2.7922650144   -1.5186284847    3.9902707070
C       -0.4606896425    2.1829631281   -1.0534781344
C       -1.0627703773    0.8726445425    1.1426637843
C       -3.2989761055    0.1511389604    0.1911293276
C       -2.8642956333   -2.1280556893    2.6550209035
C       -1.9310874647   -1.4290605054    1.6446747572
C       -2.3183074085    0.0451401513    1.3635296558
N       -2.7141345831   -1.0168111858    5.0368426950
H        0.1051210441    1.7151102367   -1.8576913692
H       -0.7642543064    3.2194657155   -1.1926559566
H       -0.3626351322    0.9119969997    1.9793119037
H       -4.1896562093   -0.4618154237    0.3697390392
H       -3.6268055570    1.1838865032    0.0419246452
H       -2.8318270567   -0.1894434539   -0.7382886985
H       -2.6018833324   -3.1869296792    2.7504119992
H       -3.9064735551   -2.0865724233    2.3189117310
H       -0.9104076316   -1.4826208574    2.0358422643
H       -1.9386423672   -1.9977499085    0.7090083725
H       -2.7978096478    0.4468100390    2.2661126605
20   
torsion grid (-75,)
C       -0.7451935443    1.5011481483   -0.0430638841
C       -3.0682359690   -1.5941870276    3.8835490709
C       -0.5326909950    2.1288566668   -1.1773144400
C       -0.9653631061    0.8793497236    1.0929362242
C       -3.2985064435    0.1992039096    0.3685078177
C       -2.8646803883   -2.1650539833    2.5448425811
C       -1.8221911109   -1.3779179507    1.7228818700
C       -2.2152828855    0.0899695366    1.4461901577
N       -3.2102373974   -1.1226450766    4.9374711399
H       -0.0555464552    1.6306575175   -2.0198686129
H       -0.8203888205    3.1706516667   -1.3101157735
H       -0.1880703132    0.9157141356    1.8587129422
H       -4.2004969086   -0.3520126241    0.6539329483
H       -3.5848309444    1.2420433336    0.2060859442
H       -2.9406111000   -0.2007529679   -0.5858281443
H       -2.5431351956   -3.2048577736    2.6654443881
H       -3.8335418225   -2.1896553251    2.0355606422
H       -0.8703110700   -1.4095226278    2.2633120336
H       -1.6642955427   -1.8991070768    0.7722587805
H       -2.6005298693    0.5154687891    2.3827528255
20   
torsion grid (-60,)
C       -0.7438300016    1.4706939762   -0.1160712339
C       -3.3416918219   -1.6286858573    3.6998113539
C       -0.6251776148    2.0830387046   -1.2722413346
C       -0.8726917175    0.8654782471    1.0426591156
C       -3.2882937314    0.2425752711    0.5530890487
C       -2.8411123018   -2.1951907240    2.4395123599
C       -1.7204454451   -1.3419526804    1.8094291933
C       -2.1088365391    0.1236983074    1.5225721495
N       -3.7218805469   -1.1574473693    4.6930768420
H       -0.2530462425    1.5627215119   -2.1534633829
H       -0.8887105102    3.1334397454   -1.3860818818
H       -0.0219690481    0.8776578709    1.7270080599
H       -4.1949497070   -0.2024096340    0.9734662498
H       -3.5064508352    1.2919624712    0.3370820570
H       -3.0682636525   -0.2531015285   -0.3989493516
H       -2.4702947245   -3.2048231642    2.6451128337
H       -3.6876964864   -2.3013535494    1.7547588081
H       -0.8506288772   -1.3628369561    2.4749342088
H       -1.4173778685   -1.8252865577    0.8735896266
H       -2.4007922101    0.5791729088    2.4789537894
20   
torsion grid (-45,)
C       -0.7478443466    1.4349311764   -0.1801915754
C       -3.5334517088   -1.6832404306    3.5242975404
C       -0.7051076998    2.0354776285   -1.3477737781
C       -0.8014512235    0.8413527718    0.9903239066
C       -3.2740332853    0.2864392083    0.7077053809
C       -2.8288925224   -2.2030165492    2.3431330222
C       -1.6504272935   -1.3073806256    1.9115324848
C       -2.0218119490    0.1565939677    1.5795433547
N       -4.0747187079   -1.2462580899    4.4566303736
H       -0.4336357125    1.4947404190   -2.2531156184
H       -0.9333174051    3.0955067172   -1.4480071521
H        0.1048426920    0.8200701330    1.5991259646
H       -4.1611333931   -0.0793505835    1.2313776764
H       -3.4521603376    1.3341019163    0.4507682685
H       -3.1679656178   -0.2686148379   -0.2317293941
H       -2.4630789518   -3.2073263692    2.5813775244
H       -3.5549374486   -2.3111867916    1.5326949609
H       -0.8828826305   -1.3198445328    2.6925047937
H       -1.2070339934   -1.7723540025    1.0230324602
H       -2.2350983468    0.6567098686    2.5350183175
20   
torsion grid (-30,)
C       -0.7586971665    1.3853628689   -0.2412644489
C       -3.6672320721   -1.7862906126    3.3625290584
C       -0.7714041378    1.9516086856   -1.4265871031
C       -0.7563878248    0.8247581219    0.9465350009
C       -3.2638612169    0.3583350676    0.8441258164
C       -2.8055496382   -2.2042137442    2.2464639217
C       -1.6097340140   -1.2573092048    2.0247205146
C       -1.9600026806    0.2052551946    1.6335123874
N       -4.3312884982   -1.4315654518    4.2493225121
H       -0.5827831699    1.3763786066   -2.3317462181
H       -0.9649491432    3.0168515732   -1.5429657489
H        0.1870884367    0.7825520135    1.4947583356
H       -4.1246475542    0.0339003044    1.4336096357
H       -3.4206652367    1.4076874590    0.5801101005
H       -3.2426120585   -0.2118556059   -0.0919828006
H       -2.4382359284   -3.2123997473    2.4656433550
H       -3.4204820671   -2.2754609757    1.3455199341
H       -0.9732436054   -1.2576762668    2.9150233264
H       -1.0191479969   -1.7044858434    1.2164993017
H       -2.1003043094    0.7559185511    2.5744216305
20   
torsion grid (-15,)
C       -0.7797796606    1.3167296697   -0.2969696309
C       -3.7710595246   -1.9060861370    3.1760634914
C       -0.8455157151    1.8325505256   -1.5034200148
C       -0.7244042143    0.8058983583    0.9118881827
C       -3.2477031466    0.4604627258    0.9847426313
C       -2.7676271378   -2.1981876776    2.1414316826
C       -1.5897330561   -1.2026866633    2.1384026360
C       -1.9054886278    0.2630348008    1.6980058329
N       -4.5470413831   -1.6577927526    4.0064375998
H       -0.7351505345    1.2125564872   -2.3918001295
H       -1.0065565557    2.8987434568   -1.6552156987
H        0.2492550855    0.7496376766    1.4028794341
H       -4.0837847545    0.1553667122    1.6178247836
H       -3.3843429704    1.5174920546    0.7405498061
H       -3.2975551021   -0.0958561832    0.0420498331
H       -2.3866270337   -3.2080142566    2.3276630416
H       -3.2684301536   -2.2192394336    1.1700232182
H       -1.1171096209   -1.2017902916    3.1248492339
H       -0.8549167714   -1.6241738504    1.4437380792
H       -1.9605690047    0.8587057723    2.6191044987
20   
torsion grid (0,)
C       -0.8237556063    1.2327213273   -0.3431238210
C       -3.8485488708   -2.0064881358    2.9324742604
C       -0.9479543390    1.6935402922   -1.5671266338
C       -0.7065184697    0.7768622427    0.8833269464
C       -3.2229134981    0.5713520828    1.1367045209
C       -2.7017436852   -2.1814508044    2.0298568287
C       -1.5781153760   -1.1462695419    2.2510902399
C       -1.8513918759    0.3232322378    1.7763906825
N       -4.7390066199   -1.8645557160    3.6674719127
H       -0.9234974834    1.0280000563   -2.4286602242
H       -1.0742790885    2.7575469189   -1.7612630166
H        0.2962483508    0.7020201741    1.3088375743
H       -4.0356714843    0.3091394173    1.8173647728
H       -3.3252781892    1.6306327853    0.8853313071
H       -3.3498916207    0.0086811008    0.2062137333
H       -2.3023894041   -3.1861397989    2.2056701039
H       -3.0643429107   -2.1610317119    0.9984624587
H       -1.3110704461   -1.1497951391    3.3117617358
H       -0.7071384081   -1.5344390590    1.7142539285
H       -1.8068808568    0.9537922651    2.6732112014
20   
torsion grid (15,)
C        0.3139501267    0.1418060058    0.0969768254
C       -1.6266808850   -3.8724700669    1.8196150933
C        1.4336809824   -0.4020930713   -0.3242665170
C       -0.8032899025    0.6783373817    0.5311929220
C       -3.1847806680   -0.0001544555    0.5971187521
C       -2.1202759196   -2.6063073535    1.2623512733
C       -1.4085621359   -1.3973904900    1.9056881978
C       -1.8626627413   -0.0031429169    1.3916045237
N       -1.2254482897   -4.8643338040    2.2762069381
H        1.4797873199   -0.9508715054   -1.2636733917
H        2.3553542284   -0.3162143589    0.2492037993
H       -1.0289416611    1.7025482808    0.2277493213
H       -4.0171268002   -0.3923774490    1.1917978070
H       -3.4464321855    1.0225267131    0.3073797071
H       -3.1037590236   -0.5889280413   -0.3208894032
H       -1.9552162858   -2.6302053673    0.1801263365
H       -3.2010791844   -2.5674185843    1.4236047120
H       -1.5875481274   -1.4523453014    2.9841603661
H       -0.3321826321   -1.5149035199    1.7694748287
H       -2.0106547634    0.6401123203    2.2673988860
20   
torsion grid (30,)
C        0.2586363983    0.0417480409    0.0823532174
C       -1.4682092546   -3.8124681812    1.7130103773
C        1.3477185896   -0.5751941315   -0.3177638560
C       -0.8330465042    0.6415198363    0.4986148547
C       -3.2306310108    0.0380834133    0.6723434959
C       -1.9628909792   -2.5450703186    1.1604236657
C       -1.4634291765   -1.3381397841    1.9813192301
C       -1.8857436484    0.0418645104    1.4258752759
N       -1.0688219223   -4.8064631840    2.1666534233
H        1.3526251746   -1.1902240640   -1.2164098585
H        2.2840265400   -0.4857473900    0.2308791052
H       -1.0399483155    1.6479250172    0.1296193574
H       -4.0417227811   -0.3524369443    1.2979331117
H       -3.5041391492    1.0568641036    0.3796454885
H       -3.1764141034   -0.5608005613   -0.2408408674
H       -1.6235609171   -2.4765621399    0.1213304699
H       -3.0552529683   -2.5882265179    1.1438604765
H       -1.8628132375   -1.4471655793    2.9954821064
H       -0.3763396929   -1.3878899794    2.0693469233
H       -1.9819115895    0.7245582699    2.2791449807
20   
torsion grid (45,)
C        0.2422083222   -0.0385960017    0.0587303006
C       -1.3723515684   -3.7783675676    1.6319995428
C        1.3503277271   -0.6616797533   -0.2727791006
C       -0.8724638674    0.5653813303    0.4019101622
C       -3.2934546315    0.0922552891    0.7791358786
C       -1.8575251331   -2.5080723723    1.0789522309
C       -1.5163445621   -1.3179671781    1.9999927621
C       -1.8909532647    0.0560638027    1.4141992148
N       -0.9824153337   -4.7753197620    2.0874768506
H        1.3766777239   -1.3736240391   -1.0964555676
H        2.2824168610   -0.4822782273    0.2606421887
H       -1.1100078044    1.5175659938   -0.0764458882
H       -4.0547863318   -0.2701690254    1.4794092466
H       -3.5615935741    1.1159775361    0.4985971466
H       -3.3405799074   -0.5172301660   -0.1280573594
H       -1.4057082176   -2.3736884624    0.0911117248
H       -2.9380920694   -2.5952849510    0.9340435095
H       -2.0507806796   -1.4584666460    2.9458125997
H       -0.4491132605   -1.3387099414    2.2343955116
H       -1.8873289763    0.7683845575    2.2501500236
20   
torsion grid (60,)
C        0.2360587984   -0.0849624816    0.0239982792
C       -1.3490748788   -3.7835590939    1.6075830517
C        1.3799525295   -0.6711041550   -0.2470719886
C       -0.9161336112    0.4817883818    0.3010683276
C       -3.3429159722    0.1605812495    0.8886959928
C       -1.7567319100   -2.5069021747    1.0094042807
C       -1.5712908966   -1.3306111973    1.9913949103
C       -1.8910241930    0.0461347929    1.3854589003
N       -1.0217310181   -4.7856526977    2.0996995843
H        1.4515603056   -1.4602971500   -0.9942961955
H        2.2981990845   -0.3838170083    0.2626527370
H       -1.2027032388    1.3666598095   -0.2704716421
H       -4.0473967467   -0.1310445173    1.6750913038
H       -3.5732362525    1.1909288564    0.5985463213
H       -3.5250982403   -0.4719741930    0.0139132156
H       -1.1653665941   -2.3497423555    0.1037302111
H       -2.8030750867   -2.5993501458    0.7020215217
H       -2.2136988134   -1.4938638080    2.8628503872
H       -0.5384947052   -1.3362367327    2.3522656221
H       -1.7796671085    0.7691990367    2.2062861577
20   
torsion grid (75,)
C        0.4201735380    0.1332220012   -0.1363415555
C       -2.2512907573   -4.0667231979    1.7456671370
C        1.6511568371    0.5766411371   -0.2494989410
C       -0.8121899785   -0.3010358432   -0.0049236445
C       -2.9975334162    0.3421882152    1.0694797369
C       -2.1253740122   -2.7893783040    1.0332773070
C       -1.6699238106   -1.6525762088    1.9714142245
C       -1.6022271768   -0.2651226118    1.2921770316
N       -2.3445956551   -5.0681720855    2.3302830262
H        2.5059951274   -0.0767131911   -0.0822600768
H        1.8572396549    1.6107611097   -0.5207796308
H       -1.3141117266   -0.7086726529   -0.8849321011
H       -3.5522979207    0.3960375926    2.0121591540
H       -2.9184523834    1.3539051484    0.6605156687
H       -3.5921697417   -0.2499492932    0.3641961441
H       -1.4057229399   -2.9237800790    0.2199406012
H       -3.0943870999   -2.5626367728    0.5760905947
H       -2.3460884776   -1.5996476106    2.8312902462
H       -0.6786688159   -1.9085501503    2.3586213726
H       -1.0613997930    0.3863772130    1.9864446829
20   
torsion grid (90,)
C        0.3689136961    0.0904627786   -0.1622071481
C       -2.1643354082   -4.0875243135    1.7007606768
C        1.6078118820    0.5022065457   -0.3048005561
C       -0.8708602747   -0.3123027723   -0.0022771120
C       -2.9968103554    0.4280308743    1.1334100534
C       -1.9639993153   -2.8116129851    1.0027438584
C       -1.7696139906   -1.6430153641    1.9907626162
C       -1.6299355564   -0.2548239165    1.3112939134
N       -2.3214550339   -5.0879254296    2.2734121767
H        2.4490146908   -0.1744535126   -0.1631088653
H        1.8340403422    1.5322104036   -0.5757139910
H       -1.4046824374   -0.7021682215   -0.8715445208
H       -3.4954823308    0.5485128721    2.1005175066
H       -2.8837213837    1.4172989736    0.6795874959
H       -3.6597863844   -0.1595900511    0.4863468644
H       -1.0894658084   -2.9093636118    0.3530069178
H       -2.8317314443   -2.6439679219    0.3545651105
H       -2.6029105403   -1.6206759347    2.6997912545
H       -0.8650760186   -1.8505500026    2.5712168840
H       -1.0417828764    0.3654260055    1.9950578429
20   
torsion grid (105,)
C        0.3156044396    0.0602424540   -0.1934779066
C       -2.0650053932   -4.1197245954    1.6822815768
C        1.5579871378    0.4486173266   -0.3681194198
C       -0.9273326690   -0.3192462958   -0.0036332271
C       -2.9695218524    0.5252104575    1.1954426454
C       -1.8238878452   -2.8417516412    1.0005069426
C       -1.8863884821   -1.6532402394    1.9818983169
C       -1.6509931400   -0.2560089658    1.3296040825
N       -2.2571765665   -5.1216006234    2.2415290866
H        2.3887413957   -0.2471745640   -0.2617755940
H        1.7974224120    1.4777988302   -0.6307089306
H       -1.4930096499   -0.6853922643   -0.8631020738
H       -3.4450507491    0.6493341648    2.1738307584
H       -2.7959167842    1.5179023960    0.7688618356
H       -3.6783049479   -0.0003618357    0.5433079262
H       -0.8441682552   -2.8875435691    0.5164133917
H       -2.5705741896   -2.7406761749    0.2049163605
H       -2.8527729278   -1.6629393117    2.4944867158
H       -1.1253247723   -1.8237586056    2.7493725372
H       -1.0061957087    0.3064874730    2.0111859538
20   
torsion grid (120,)
C        0.7255083617   -0.1308755621    2.2416768307
C       -1.2611186253    2.3603601501    2.7021821541
C        1.9149298307    0.4200212987    2.1978155534
C       -0.4949448077   -0.6139493198    2.2705972975
C       -2.2247201791   -1.8378238935    0.9486298360
C       -2.4340496923    1.4769194474    2.6171541833
C       -2.5131824931    0.6718538099    1.3028297880
C       -1.4884882065   -0.5000228060    1.1251507256
N       -0.3568898676    3.0904408013    2.7527119712
H        2.7895291867   -0.1269988457    1.8505786386
H        2.0444793070    1.4547933858    2.5127656689
H       -0.8350498087   -1.1246545367    3.1743234571
H       -2.9135518707   -1.8009407576    0.0974153257
H       -1.5176864767   -2.6562815386    0.7808724102
H       -2.8118976514   -2.0780959642    1.8435544385
H       -2.4283867924    0.8157888068    3.4884715292
H       -3.3222759298    2.1125602720    2.7036898850
H       -3.5291014237    0.2652958866    1.2522777841
H       -2.4211245806    1.3705969801    0.4665517340
H       -0.9111541823   -0.2985400458    0.2192347093
20   
torsion grid (135,)
C        0.1648468115    0.9871903142    0.6686002810
C        0.3261107547   -0.5271643472    3.5497809209
C        1.2395185743    1.7395640915    0.6538895032
C       -0.9091915310    0.2361291395    0.7476322550
C       -3.3892867067    0.4180082535    0.8951177899
C       -0.8537289088   -1.3142080461    3.1596286858
C       -2.1125746976   -0.4591849311    2.9110693289
C       -2.0740877452    0.5107104690    1.6859055352
N        1.2507337834    0.0950994246    3.8830308985
H        1.3344156159    2.5885316590   -0.0208239775
H        2.0641877150    1.5300763721    1.3336024017
H       -0.9833098030   -0.6469167743    0.1086034411
H       -4.2548756758    0.6090702656    1.5399798349
H       -3.4068982858    1.1435935815    0.0761727122
H       -3.5083573058   -0.5829527310    0.4636670625
H       -0.5927082224   -1.8953888105    2.2712749491
H       -1.0538745890   -2.0276290096    3.9666500109
H       -2.9352630004   -1.1706267167    2.7746603777
H       -2.3444438000    0.1071138658    3.8178342382
H       -1.9503888851    1.5294314989    2.0622076714
20   
torsion grid (150,)
C        0.1374357532    0.4989755372    0.4068759102
C        0.2948242099   -0.5716916926    3.5816465125
C        1.3408037346    0.9624829525    0.1642673236
C       -1.0614706247    0.0525186700    0.7026635572
C       -3.3253418154    0.9851716758    1.1595244335
C       -0.9668004535   -1.2602868130    3.2703352036
C       -2.1338013847   -0.2927720883    2.9920486186
C       -1.9548796833    0.6564390613    1.7743292748
N        1.2842393080   -0.0158126677    3.8365704667
H        1.5135015036    1.7342822238   -0.5838204176
H        2.2006247965    0.5905849266    0.7188338008
H       -1.4570782248   -0.8062980401    0.1546995647
H       -4.0109589287    1.3936286838    1.9113252096
H       -3.2268992757    1.7182811513    0.3534162562
H       -3.7857978480    0.0821922058    0.7423343502
H       -0.7889254632   -1.9094675337    2.4091600782
H       -1.2160317623   -1.9039053123    4.1208997346
H       -3.0163843719   -0.9226716180    2.8262402726
H       -2.3406861672    0.3022828463    3.8869378641
H       -1.4755492042    1.5765134000    2.1201959064
20   
torsion grid (165,)
C        0.1103327160    0.4388865199    0.3363565996
C        0.2013703438   -0.3967668771    3.7692057271
C        1.3141670715    0.8764460540    0.0507968912
C       -1.0926007674    0.0233282090    0.6597336726
C       -3.2794328288    1.0875660592    1.2281847197
C       -0.9106774412   -1.2397123399    3.3072572037
C       -2.1558332299   -0.4205619373    2.9144364943
C       -1.9286104571    0.6101588839    1.7852840165
N        1.0686873741    0.2901032517    4.1278901471
H        1.4703947774    1.6734895794   -0.6739732656
H        2.1929027212    0.4578914191    0.5376754997
H       -1.5406630181   -0.7969907649    0.0930812681
H       -3.9167058695    1.4902592504    2.0240358869
H       -3.1362634779    1.8692023115    0.4764338060
H       -3.8182227307    0.2585619884    0.7547112280
H       -0.5529847026   -1.8250108806    2.4558175341
H       -1.1608677105   -1.9422907437    4.1091488986
H       -2.9210320603   -1.1401794487    2.5974185210
H       -2.5523236758    0.0936883877    3.7962190681
H       -1.3808129361    1.4623786467    2.1987700038
20   
torsion grid (180,)
C       -0.1280412193    1.7551962266    1.1341669891
C       -0.5579473043   -0.4838120651    4.2079951167
C        0.5085891152    2.8377378970    1.5168692983
C       -0.7839137519    0.6757794032    0.7739949351
C       -3.1955874571    0.0035255960    0.6246197537
C       -0.3763671269   -1.3243616659    3.0161209372
C       -1.6079605319   -1.3074626952    2.0898606604
C       -1.9588808559    0.0864214273    1.5337166712
N       -0.7255382993    0.1866125706    5.1436863774
H        0.1982419294    3.8254152145    1.1799371544
H        1.3640577283    2.7831670675    2.1879672969
H       -0.4775137335    0.1508183543   -0.1345959574
H       -4.0521544012   -0.4132101080    1.1661282512
H       -3.4734089818    0.9951135554    0.2556649205
H       -3.0025569156   -0.6371586235   -0.2440299467
H        0.5073220584   -0.9631644972    2.4813768868
H       -0.1657179063   -2.3457958033    3.3495970484
H       -1.4056000474   -1.9936953338    1.2581553008
H       -2.4729283663   -1.7077601464    2.6298954127
H       -2.1832698347    0.7470811948    2.3773568137
