17   
torsion grid (-165,)
C        0.0049001757   -0.4910515063    2.7499021643
C       -0.2475214656    0.4155507085    3.7279219820
C       -0.4108085293    0.1729143000    1.5420175771
C       -0.1236444990   -1.8694310482   -0.1105143212
C       -1.0835412673    0.4436467164   -0.9164016348
C        0.4081821963    0.5678411946   -0.8465422048
C       -0.3328212072   -0.3403208653    0.1503695146
N       -0.8755368561    1.3851635779    1.8068501438
O        0.2286612670   -2.5708061960    0.8783793791
O       -0.2919361874   -2.2206310297   -1.3079282589
O       -0.7716599940    1.5535290970    3.2101780469
H        0.3952763367   -1.4961863802    2.7861546821
H       -0.1225364813    0.4067061570    4.8040069837
H       -1.6789941668    1.2871190001   -0.5795824568
H       -1.4876232293   -0.1751189475   -1.7102032342
H        0.9945438895    0.0464555466   -1.5966816623
H        0.8266086549    1.4879394815   -0.4461988587
17   
torsion grid (-150,)
C       -0.0621303682   -0.5142029034    2.7517634710
C       -0.2380076108    0.4033938517    3.7365235724
C       -0.2927668739    0.2260833908    1.5388472446
C        0.0289967627   -1.7851830411   -0.1528624102
C       -1.0908476224    0.4677630681   -0.8820636537
C        0.3873947978    0.7008592159   -0.8811575806
C       -0.2219795210   -0.2698115792    0.1388952540
N       -0.5844395045    1.4907254249    1.8079698193
O        0.2000919208   -2.5421608441    0.8431900841
O        0.0377964823   -2.0803078440   -1.3774259222
O       -0.5506050302    1.6162587267    3.2181672258
H        0.1816712356   -1.5647945443    2.7824636552
H       -0.1820058396    0.3580553347    4.8174356704
H       -1.7299903766    1.2564925515   -0.4950966904
H       -1.4906736131   -0.1652366795   -1.6670577704
H        0.9669147323    0.2243145737   -1.6649182487
H        0.7534063172    1.6461676533   -0.4894809295
17   
torsion grid (-135,)
C       -0.1587481096   -0.5736166981    2.7216600718
C       -0.2540206667    0.3714326435    3.6912177215
C       -0.1110810065    0.1834030368    1.4980083744
C        0.3140257111   -1.8385606384   -0.1516689621
C       -1.0608187101    0.2563386004   -0.8726613865
C        0.3804540196    0.6573099900   -0.9703263749
C       -0.0357816506   -0.3359420139    0.1073456081
N       -0.1728181273    1.4834835606    1.7465723403
O        0.3527475232   -2.5981485126    0.8560170222
O        0.4898215503   -2.1275092764   -1.3649061821
O       -0.2682067065    1.6159794746    3.1539165979
H       -0.1016127403   -1.6498212251    2.7713518228
H       -0.3137719071    0.3287135379    4.7720674454
H       -1.7641493688    0.9758122545   -0.4614166194
H       -1.4393055505   -0.4402289195   -1.6138776780
H        0.9590623987    0.2167144565   -1.7750114137
H        0.6530183892    1.6549785650   -0.6386664736
17   
torsion grid (-120,)
C       -0.2421847717   -0.6276573386    2.7296605433
C       -0.2743139724    0.3144181013    3.7060420072
C       -0.0763901912    0.1311041250    1.5174554358
C        0.3510703490   -1.8917695710   -0.1193507869
C       -1.0863803295    0.1511828864   -0.8258221600
C        0.3394716047    0.6078612742   -0.9639717556
C       -0.0070752263   -0.3865159297    0.1270143313
N       -0.0156221474    1.4286923088    1.7772593903
O        0.1610756903   -2.6793905075    0.8489214490
O        0.7315767729   -2.1545053471   -1.2899139078
O       -0.1469931311    1.5586347310    3.1827968940
H       -0.2955255858   -1.7046207903    2.7686199295
H       -0.3732288721    0.2690872679    4.7839432827
H       -1.8084582234    0.8460624845   -0.4040966678
H       -1.4648933588   -0.5610577777   -1.5529436683
H        0.9149148162    0.1795011381   -1.7774631764
H        0.5780287713    1.6213166078   -0.6555044214
17   
torsion grid (-105,)
C       -0.2608320611   -0.6286776451    2.7326887228
C       -0.2665862970    0.3043334971    3.7180469902
C       -0.0481633708    0.1350714935    1.5309976204
C        0.4150717767   -1.8823124545   -0.0808854670
C       -1.0868653945    0.1029457166   -0.7987593230
C        0.3238784986    0.6116657726   -0.9600703173
C        0.0246227585   -0.3785069702    0.1410173075
N        0.0630636622    1.4262344553    1.8035482367
O       -0.0058197058   -2.6875744500    0.7962010105
O        1.0329276897   -2.1222415501   -1.1494453994
O       -0.0809697014    1.5474107713    3.2095344987
H       -0.3672762370   -1.7024656579    2.7583346084
H       -0.3820436573    0.2528348864    4.7940449793
H       -1.8305001635    0.7765894279   -0.3790891022
H       -1.4576840919   -0.6272881581   -1.5128570658
H        0.9123355747    0.1944671798   -1.7704385765
H        0.5257549160    1.6393993868   -0.6733085411
17   
torsion grid (-90,)
C       -0.2810147953   -0.6118483599    2.7096645134
C       -0.2561487687    0.2996156917    3.7145022067
C       -0.0329966545    0.1693916573    1.5263314892
C        0.4559092658   -1.8303900470   -0.0623868340
C       -1.1116294645    0.1157480955   -0.7810932657
C        0.2886163518    0.6570332567   -0.9737387000
C        0.0284683687   -0.3308159166    0.1326516032
N        0.1252050850    1.4490279381    1.8246677892
O       -0.1653545008   -2.6521820198    0.6686580365
O        1.3039328916   -2.0427834117   -0.9645986507
O       -0.0212463063    1.5453667767    3.2334362426
H       -0.4341715126   -1.6807768854    2.7132479586
H       -0.3794458946    0.2301563726    4.7886122661
H       -1.8625943750    0.7777098918   -0.3551306728
H       -1.4867109013   -0.6251171186   -1.4825243952
H        0.8769040701    0.2526251682   -1.7912739131
H        0.4727422500    1.6928629966   -0.7036729041
17   
torsion grid (-75,)
C       -0.3053478451   -0.5846592454    2.6888760301
C       -0.2444698806    0.3102767075    3.7067682077
C       -0.0192508108    0.2021049744    1.5181734817
C        0.4704477693   -1.7971430123   -0.0225856379
C       -1.1448170250    0.1308714987   -0.7596958794
C        0.2529471989    0.6759207979   -0.9948621261
C        0.0181603776   -0.2975913084    0.1249673786
N        0.1935366269    1.4686375416    1.8330814264
O       -0.3105842494   -2.6263715812    0.5232276186
O        1.5143577277   -1.9924836573   -0.6922790837
O        0.0456118582    1.5511750945    3.2437505574
H       -0.5065961292   -1.6460655698    2.6813250470
H       -0.3746220422    0.2313326171    4.7793845533
H       -1.8873805805    0.7999944703   -0.3295255021
H       -1.5372098328   -0.6212262850   -1.4391877926
H        0.8246475506    0.2731272872   -1.8254028322
H        0.4407970547    1.7168088263   -0.7460778478
17   
torsion grid (-60,)
C       -0.2995464648   -0.5752853368    2.6777087717
C       -0.2168037498    0.3145481836    3.6983773780
C       -0.0081803653    0.2097112776    1.5074513195
C        0.4634686839   -1.7998379107    0.0170359660
C       -1.1716587876    0.1325779629   -0.7480724331
C        0.2304942311    0.6557012754   -1.0168949907
C       -0.0006506445   -0.2994971349    0.1182565013
N        0.2283082688    1.4705849984    1.8239339897
O       -0.4258419405   -2.6409469843    0.3256841359
O        1.6491275161   -1.9747780545   -0.3576502442
O        0.0911909444    1.5511743854    3.2368097685
H       -0.5200355052   -1.6332727795    2.6774992969
H       -0.3396279554    0.2338347892    4.7716737058
H       -1.8966329741    0.8217165280   -0.3193070690
H       -1.5854526807   -0.6290169536   -1.4032686088
H        0.7780633134    0.2450531397   -1.8603581356
H        0.4398270465    1.6971315781   -0.7862990995
17   
torsion grid (-45,)
C        0.4573379384   -0.3603911599    2.5044490407
C        0.1437070888    0.4288451429    3.5624358378
C       -0.3113617324    0.1919046444    1.4206249017
C       -0.0410419737   -1.8419371541   -0.1137098266
C       -1.1041100257    0.4233974646   -1.0255466307
C        0.3985137212    0.5931334257   -0.9945148641
C       -0.3038545441   -0.2971074076    0.0262332617
N       -1.0243470124    1.2313683870    1.8192930686
O       -1.0343958601   -2.5376861216   -0.4394365719
O        1.1389434543   -2.1923622138    0.1689790366
O       -0.7330619670    1.3973304415    3.2002355956
H        1.1126309483   -1.2158239493    2.4247675101
H        0.4435309906    0.4364545842    4.6034264101
H       -1.7180371154    1.2676555871   -0.7221774585
H       -1.5357326875   -0.2206992191   -1.7860675661
H        1.0059005087    0.0813715956   -1.7362388535
H        0.7953275188    1.5456187656   -0.6482335107
17   
torsion grid (-30,)
C       -0.2011437557   -0.6566856561    2.6578813112
C       -0.8502696497   -0.0060822729    3.6559890928
C       -0.5215151112    0.1056931094    1.4799356127
C        0.2718610138   -1.6674032808   -0.2336392371
C       -0.4381092843    0.7716007367   -1.0076365909
C        0.9673971038    0.8313702285   -0.4608587819
C       -0.0466562265   -0.1654769418    0.1056226441
N       -1.3051134330    1.1305712887    1.7731281196
O       -0.3388648448   -2.1526134274   -1.2178444749
O        1.1061234021   -2.2078666192    0.5458754137
O       -1.5186028772    1.0717209619    3.1761249325
H        0.4186704463   -1.5411892560    2.6636065324
H       -0.9388437493   -0.1732157828    4.7227406997
H       -1.1087345106    1.5944882969   -0.7756173770
H       -0.5944519078    0.2803796344   -1.9631006217
H        1.7795194638    0.4100812387   -1.0479346950
H        1.2384174455    1.6813576997    0.1622072035
17   
torsion grid (-15,)
C       -0.2403356466   -0.7017212879    2.6554494827
C       -0.8463492297   -0.0128771782    3.6552077468
C       -0.5206111971    0.0764376319    1.4772875570
C        0.2515425086   -1.7009757542   -0.2789455695
C       -0.5010012814    0.7303063243   -1.0088277053
C        0.9175536748    0.7913031579   -0.5089309914
C       -0.0758679462   -0.2109759053    0.0941219564
N       -1.2425702748    1.1457624371    1.7743996002
O       -0.1427356623   -2.0750597607   -1.4119240536
O        0.8939894136   -2.3414708472    0.6000359974
O       -1.4524135875    1.1019103948    3.1772060839
H        0.3235523402   -1.6223796031    2.6556717106
H       -0.9395123594   -0.1731765285    4.7226229577
H       -1.1648158806    1.5496857411   -0.7486290482
H       -0.6793838870    0.2334986770   -1.9570251646
H        1.7066063161    0.3716602479   -1.1276787637
H        1.2082290234    1.6372662576    0.1103143240
17   
torsion grid (0,)
C       -0.3036642890   -0.7219459700    2.6717253279
C       -0.8754792340    0.0197454644    3.6538628376
C       -0.5197341706    0.0540877107    1.4784595469
C        0.2691944263   -1.7548107828   -0.2664027519
C       -0.5403960006    0.6432537573   -1.0186348778
C        0.8804811810    0.7441727834   -0.5448488787
C       -0.0798466656   -0.2706040486    0.0997711190
N       -1.1752069525    1.1720950148    1.7530841199
O        0.1295989333   -2.0491076297   -1.4813713816
O        0.6822296910   -2.4745971488    0.6853703101
O       -1.4050724734    1.1625591832    3.1522976702
H        0.1958238102   -1.6784138234    2.6908989317
H       -0.9910868594   -0.1184144925    4.7221738027
H       -1.2195386305    1.4490600010   -0.7561951816
H       -0.7147687659    0.1249805815   -1.9555024360
H        1.6624194845    0.3227761960   -1.1703721514
H        1.1616715096    1.6048105916    0.0575784653
17   
torsion grid (15,)
C       -0.3498464044   -0.7149300750    2.6895693422
C       -0.8961591989    0.0606519371    3.6601559294
C       -0.5129711641    0.0620864518    1.4885895545
C        0.2890953048   -1.7672254072   -0.2407725035
C       -0.5634706829    0.5990641476   -1.0171343799
C        0.8547487538    0.7505585183   -0.5568224021
C       -0.0648605152   -0.2844124622    0.1159744087
N       -1.1170192085    1.2121268686    1.7494594729
O        0.4063521322   -1.9934664187   -1.4737011113
O        0.4424614441   -2.5611686831    0.7287686570
O       -1.3647540013    1.2237763239    3.1449420911
H        0.0930425672   -1.6982249376    2.7209433648
H       -1.0321573770   -0.0652133600    4.7275478354
H       -1.2674447312    1.3839363366   -0.7566935872
H       -0.7232520164    0.0658226546   -1.9479113465
H        1.6379841606    0.3348079607   -1.1831969463
H        1.1109591875    1.6283548552    0.0312974665
17   
torsion grid (30,)
C       -0.4714157403   -0.8123975586    2.7022887251
C       -0.8939666431    0.0257288606    3.6829009449
C       -0.4543314075    0.0111910344    1.5216869485
C        0.2640185546   -1.8689706852   -0.1976009460
C       -0.6451453965    0.4559531187   -0.9930557109
C        0.7897297289    0.6583912366   -0.6169874326
C       -0.0510258385   -0.3759218020    0.1438373034
N       -0.8433341473    1.2462285827    1.8044208764
O        0.5644307374   -2.0703531687   -1.4042355162
O        0.1919225306   -2.7025561130    0.7480196107
O       -1.1272268358    1.2674204313    3.1917912397
H       -0.2081244287   -1.8586045217    2.7148678812
H       -1.0786973009   -0.0991876111    4.7430077000
H       -1.3579508938    1.2256039009   -0.7107595500
H       -0.8428282486   -0.1059078865   -1.8996390288
H        1.5414661691    0.2329750614   -1.2735921405
H        1.0506324774    1.5627583180   -0.0737306259
17   
torsion grid (45,)
C       -0.5649132518   -0.8493376840    2.6701310969
C       -0.9293590786   -0.0008147847    3.6648703904
C       -0.2196561791    0.0211602991    1.5766853467
C        0.6858273234   -1.8286876151   -0.0809966153
C       -0.5550043820    0.2960006388   -0.9406806610
C        0.8468496568    0.7346542877   -0.6398895291
C        0.2221567531   -0.3630372894    0.2105126742
N       -0.3728964376    1.2916569699    1.9204668141
O        1.1937193811   -1.9941618634   -1.2215297603
O        0.4895914640   -2.6812780402    0.8291698567
O       -0.8325953214    1.2895423460    3.2606578698
H       -0.4966365590   -1.9254061806    2.6335212046
H       -1.2650226871   -0.1464783475    4.6845431963
H       -1.3691348478    0.9588772396   -0.6589992083
H       -0.7085376725   -0.3353594374   -1.8101097960
H        1.6248553640    0.3829702466   -1.3087325501
H        0.9850725593    1.7027330353   -0.1673861127
17   
torsion grid (60,)
C       -0.7759515577   -0.6348036440    2.6579713613
C       -0.9803850758    0.1959189510    3.7115389625
C       -0.3457329882    0.2421589584    1.6003937664
C        0.3540095262   -1.6097179747   -0.1406095712
C       -0.8561003306    0.5644665574   -0.8787453633
C        0.5793265626    0.9650258872   -0.6752303963
C       -0.0062349299   -0.1233304588    0.2014905150
N       -0.3037541115    1.4990345548    2.0170116825
O        1.0122238694   -1.7602611811   -1.2025018654
O       -0.0779908941   -2.4871669121    0.6577929435
O       -0.7149268576    1.4817265441    3.3736017547
H       -0.8677839231   -1.7053073554    2.5586358981
H       -1.2983254177    0.0385939365    4.7351916150
H       -1.6318952836    1.2432933373   -0.5331253703
H       -1.0973845220   -0.0450460037   -1.7447517273
H        1.2989973616    0.5998491026   -1.3999011526
H        0.7742382089    1.9270165251   -0.2107305470
17   
torsion grid (75,)
C       -0.7198996734   -0.5503349541    2.6569002590
C       -0.8927096991    0.2723991552    3.7221514580
C       -0.2767951097    0.3281906737    1.6061062397
C        0.4250000831   -1.5285975477   -0.1049401537
C       -0.8473390398    0.6044179551   -0.8635196332
C        0.5849844089    1.0468746631   -0.6969358273
C        0.0468773061   -0.0379231197    0.2049514345
N       -0.1977160738    1.5783527524    2.0358640175
O        1.2905077345   -1.6876611317   -1.0029011957
O       -0.2039504799   -2.3965754513    0.5629585346
O       -0.5965078406    1.5548520030    3.3970209367
H       -0.8512017848   -1.6155640546    2.5424579294
H       -1.2056371399    0.1111653786    4.7467530893
H       -1.6346215940    1.2683721301   -0.5143585133
H       -1.0978601518   -0.0218662797   -1.7156568763
H        1.3041433771    0.6878979991   -1.4259235478
H        0.7662380178    2.0245348149   -0.2602093571
17   
torsion grid (90,)
C       -0.7650042253   -0.5050694582    2.6613833478
C       -0.9092923031    0.2992547982    3.7445387021
C       -0.2536729814    0.3733284473    1.6422450743
C        0.4907343545   -1.4797744888   -0.0175914698
C       -0.8618334841    0.5991172082   -0.8200725120
C        0.5644373257    1.0893817751   -0.6836778796
C        0.0676530574    0.0114960892    0.2415987820
N       -0.1103712423    1.6055654999    2.1029180516
O        1.5355147088   -1.6411230599   -0.6960653043
O       -0.2843590682   -2.3401965514    0.4865934476
O       -0.5361896874    1.5707498094    3.4566641774
H       -0.9535352433   -1.5587750794    2.5194795944
H       -1.2495844870    0.1312706306    4.7592864240
H       -1.6622546247    1.2523941587   -0.4792113144
H       -1.1134630900   -0.0495535140   -1.6553264355
H        1.2903967185    0.7418888651   -1.4119552274
H        0.7200274539    2.0840915298   -0.2761023585
17   
torsion grid (105,)
C       -0.7572501440   -0.5970002559    2.5591813475
C       -0.8496168884    0.1734240987    3.6721568219
C       -0.2448821784    0.3004806954    1.5577432527
C        0.4328683873   -1.5344972122   -0.1074011029
C       -0.9391428032    0.5696856047   -0.8742090711
C        0.5010121825    1.0417334472   -0.7883876984
C        0.0217386422   -0.0372193563    0.1408766363
N       -0.0509254853    1.5106466873    2.0544490439
O        1.5905350626   -1.7187064716   -0.5573511030
O       -0.4582902563   -2.3726491059    0.2070301272
O       -0.4442082263    1.4420142869    3.4177314299
H       -0.9871419227   -1.6388981026    2.3901879437
H       -1.1690684387   -0.0190381344    4.6892936254
H       -1.7162343674    1.2337165527   -0.5010011280
H       -1.2344395675   -0.0701014439   -1.7018785940
H        1.1969089121    0.7018637636   -1.5495108110
H        0.6874028797    2.0315378826   -0.3807252441
17   
torsion grid (120,)
C       -0.7458823433   -0.5888622301    2.5489191408
C       -0.8230580928    0.1726056097    3.6690516788
C       -0.2330311648    0.3119741386    1.5512233820
C        0.4188663636   -1.5355983294   -0.0717817351
C       -0.9625124278    0.5750967645   -0.8688541311
C        0.4857977027    1.0328458736   -0.8133385785
C        0.0075033942   -0.0316036008    0.1321052700
N       -0.0245392543    1.5159450688    2.0543897179
O        1.6453297859   -1.7443588238   -0.2429151632
O       -0.5401656762   -2.3515900490    0.0209045795
O       -0.4084699206    1.4391678268    3.4207422842
H       -0.9892626268   -1.6281976261    2.3804201156
H       -1.1356824526   -0.0255404629    4.6871771124
H       -1.7240313544    1.2554141201   -0.4926950990
H       -1.2800605275   -0.0745836120   -1.6799881997
H        1.1631147982    0.6882215910   -1.5895140734
H        0.6923238944    2.0243931066   -0.4188415187
17   
torsion grid (135,)
C        0.0908545994   -0.3663227126    2.5884807943
C       -0.3500392366    0.3602682003    3.6459694663
C       -0.4959997260    0.2883349301    1.4491510883
C       -0.0743407355   -1.6517753178   -0.1744015049
C       -0.8913810515    0.7216846146   -1.0668005134
C        0.5937706239    0.8067344681   -0.7942145586
C       -0.2979054704   -0.1080501494    0.0397958143
N       -1.2295303270    1.3246916722    1.8169174068
O        1.0499801289   -2.0704272535    0.2194259499
O       -1.0182419584   -2.2682999585   -0.7272960627
O       -1.1368595068    1.3845055778    3.2343399821
H        0.7277190287   -1.2380004751    2.5409865099
H       -0.2049609650    0.2845020942    4.7168825122
H       -1.5081185590    1.5762833043   -0.8000205852
H       -1.2260315766    0.1531213631   -1.9294167935
H        1.2856613180    0.3104811921   -1.4692304212
H        0.9740209208    1.7113443784   -0.3233856229
17   
torsion grid (150,)
C        0.0945884632   -0.3519579696    2.6211325681
C       -0.3436404628    0.3975503224    3.6636739207
C       -0.4756811679    0.2922975466    1.4671545172
C       -0.0273356701   -1.6491522128   -0.1932483947
C       -0.9108713731    0.7087715265   -1.0387059450
C        0.5760493099    0.8012081117   -0.8012516418
C       -0.2935953484   -0.1197596398    0.0587380936
N       -1.1971441314    1.3453845173    1.8148313797
O        0.9590259490   -2.1160550028    0.4430725961
O       -0.7741219381   -2.2036405783   -1.0370830855
O       -1.1136186999    1.4262470021    3.2306506538
H        0.7163973194   -1.2343715312    2.5834906320
H       -0.2063251362    0.3369962037    4.7366186049
H       -1.5244595989    1.5601089923   -0.7566104534
H       -1.2559071334    0.1272312463   -1.8879590823
H        1.2516159348    0.3108483618   -1.4972959220
H        0.9652502954    1.7034004389   -0.3336770878
17   
torsion grid (165,)
C        0.1216428862   -0.3391411547    2.6815303149
C       -0.2664155210    0.4479702847    3.7165013747
C       -0.4113530950    0.3248138352    1.5207271533
C        0.0167299375   -1.6140996149   -0.1874379125
C       -0.9489361430    0.7270095026   -0.9598740137
C        0.5418003946    0.8423692932   -0.7928202666
C       -0.2697562167   -0.0992554834    0.1085317271
N       -1.0659989846    1.4243460917    1.8607897061
O        0.8342055124   -2.1678885404    0.6003892391
O       -0.5331104528   -2.0756440200   -1.2192451964
O       -0.9737879082    1.5166697717    3.2738850881
H        0.6853779408   -1.2593264066    2.6496117320
H       -0.1291082643    0.3915260420    4.7896773993
H       -1.5611366333    1.5647422775   -0.6385434134
H       -1.3145639506    0.1388511418   -1.7952451129
H        1.1855947435    0.3638543919   -1.5260071195
H        0.9395176194    1.7450630158   -0.3343414910
17   
torsion grid (180,)
C        0.1351607128   -0.3859903245    2.6675083835
C       -0.2118098251    0.4256208503    3.6983782671
C       -0.3601613488    0.2990198911    1.5021276062
C        0.0579832699   -1.6287289835   -0.2458238387
C       -0.9712026553    0.6959668985   -0.9570934785
C        0.5170039760    0.8483539435   -0.8349166154
C       -0.2384525695   -0.1257864708    0.0859585460
N       -0.9566326816    1.4331377837    1.8381688779
O        0.6693329650   -2.2827247683    0.6447739935
O       -0.2849528897   -1.9922486232   -1.4004903862
O       -0.8626339969    1.5271370081    3.2499206737
H        0.6428162760   -1.3379339085    2.6410093584
H       -0.0794265254    0.3666151147    4.7720302495
H       -1.5942142254    1.5111972697   -0.6011461900
H       -1.3402228434    0.1084911445   -1.7909381290
H        1.1432417438    0.3871717126   -1.5931040540
H        0.9046742952    1.7545673401   -0.3756049201
