25   
torsion grid (-165,)
C        4.4376856735    1.6584336477    1.5608491048
C        5.0849490065    1.4588299088    0.3630029934
C        3.1901735608    0.3062756833    0.4291809323
C        0.1272526092   -0.5333781318   -1.5137395746
C       -0.5711413659    0.2832535641   -2.5903768362
C        2.5162885024   -2.0700918292   -0.1592085467
C        4.6209990677    0.0622412415   -1.6777227444
C        2.0646195442   -0.6153003204    0.0523294136
N        3.2605198127    0.9431578242    1.5888287889
N        4.2818279509    0.5958387966   -0.3632553210
N        1.3666413119   -0.0720967331   -1.1336922224
O       -0.3834167875   -1.5422023710   -1.0334426161
H        4.7457454354    2.2777875714    2.3933093537
H        6.0133215718    1.8414704463   -0.0382586022
H       -1.4790543686    0.7200609614   -2.1642588980
H       -0.8774327604   -0.3893406036   -3.3952525905
H        0.0473373834    1.0830306960   -3.0076671831
H        3.0454403657   -2.4149012603    0.7342550817
H        3.1848986801   -2.1684913420   -1.0182009260
H        1.6446167566   -2.7043175058   -0.3236504867
H        5.2695427079   -0.8152249312   -1.5900970045
H        5.1406904384    0.8309636299   -2.2546460540
H        3.7133228559   -0.2199832423   -2.2109061231
H        1.3763932065   -0.5953405445    0.9026071333
H        1.5761468401    0.8910347368   -1.3658847789
25   
torsion grid (-150,)
C        4.3211508660    1.7095531452    1.5449773446
C        5.0384132578    1.5047966332    0.3884375891
C        3.1838150257    0.2864118101    0.3862834463
C        0.0914308046   -0.4715412188   -1.4461768742
C       -0.6125164461    0.3511981029   -2.5130716394
C        2.5849971625   -2.1213148867   -0.2257651807
C        4.7331565741    0.0386971948   -1.6340185648
C        2.1081417503   -0.6745772064   -0.0307188958
N        3.1690896961    0.9545355046    1.5301323204
N        4.3054831512    0.5963455790   -0.3561048933
N        1.4178144891   -0.1618307521   -1.2362973341
O       -0.4809916411   -1.3663497934   -0.8296091796
H        4.5630531047    2.3592632085    2.3761469990
H        5.9738185936    1.9100510508    0.0276937485
H       -1.3909990108    0.9517708765   -2.0332031980
H       -1.1056082640   -0.3283537503   -3.2121733837
H        0.0569530730    1.0140514517   -3.0686661228
H        3.0716346958   -2.4741665414    0.6886772443
H        3.2910241272   -2.2155574215   -1.0547697172
H        1.7219039350   -2.7575949616   -0.4317134475
H        5.3936410664   -0.8217164328   -1.4867087635
H        5.2696140304    0.8043676860   -2.1994392605
H        3.8666240281   -0.2780399779   -2.2146625881
H        1.3886418914   -0.6699299827    0.7923641688
H        1.7089555930    0.7543802096   -1.5553613625
25   
torsion grid (-135,)
C        4.2216386788    1.7726228665    1.4917121499
C        4.9965434763    1.5681152054    0.3731858023
C        3.2035197170    0.2586473054    0.3355862851
C        0.0867609639   -0.4079309007   -1.3584045627
C       -0.6006293691    0.4084051281   -2.4405943750
C        2.7213904190   -2.1829048751   -0.2898285645
C        4.8533676708    0.0250739085   -1.6070816032
C        2.1854783909   -0.7568194573   -0.0981709770
N        3.1105392699    0.9594677432    1.4556807223
N        4.3400354015    0.6014218543   -0.3702435665
N        1.4583625818   -0.2824277037   -1.2966619332
O       -0.5382271096   -1.1489916828   -0.6049495189
H        4.3964086498    2.4585690431    2.3105109905
H        5.9265802881    2.0066550441    0.0384723739
H       -1.2153854149    1.1755028578   -1.9600861743
H       -1.2702775385   -0.2458949707   -3.0034158845
H        0.0944092626    0.8925477973   -3.1326878656
H        3.2269227644   -2.5177827612    0.6213448683
H        3.4217284377   -2.2584363334   -1.1253901358
H        1.8807270608   -2.8527180049   -0.4876226020
H        5.5163680727   -0.8218670101   -1.4036543632
H        5.4112959263    0.7882968757   -2.1542013771
H        4.0322819750   -0.3186340402   -2.2370461968
H        1.4565959713   -0.7864805014    0.7145120038
H        1.8453011918    0.5268538478   -1.7659347810
25   
torsion grid (-120,)
C        4.4854812343    1.4294554829    1.7634774461
C        5.0599635288    1.5039581096    0.5163311378
C        3.2658925807    0.1964243258    0.4756773578
C        0.1622506383   -0.1253268222   -1.2440204373
C       -0.4071170367    0.1583441410   -2.6253878567
C        2.7288586070   -2.2112682973   -0.0977321886
C        4.4864580108    0.5429709452   -1.7368025489
C        2.2020868081   -0.7714138208    0.0242905358
N        3.3741347261    0.6150034467    1.7266167343
N        4.2832746579    0.7008098807   -0.3054221416
N        1.5195953385   -0.3516572859   -1.2032108359
O       -0.5462720479   -0.1261302084   -0.2422213537
H        4.8051356446    1.9129046124    2.6775963745
H        5.9205875625    2.0379694231    0.1378725290
H       -0.8351632120    1.1645142337   -2.6237439941
H       -1.2212877887   -0.5441877988   -2.8207362382
H        0.3292409212    0.0895558662   -3.4318423212
H        3.2021163391   -2.5145189761    0.8399903612
H        3.4736221585   -2.3089699048   -0.8964032925
H        1.9020201251   -2.8947700880   -0.3133230696
H        4.3663632431   -0.5028500361   -2.0312765802
H        5.5060894668    0.8413532889   -1.9865576663
H        3.7894798970    1.1644568868   -2.3084370656
H        1.4400434034   -0.7388906158    0.8039170969
H        1.9863625110   -0.5077836717   -2.0858878483
25   
torsion grid (-105,)
C        4.4873013340    1.3706358060    1.8230902484
C        4.9955251489    1.5190678388    0.5537370714
C        3.2425869708    0.1595584228    0.5414500369
C        0.2486219055    0.0262620119   -1.1872102369
C       -0.3494253540    0.1835088934   -2.5769781063
C        2.7578107389   -2.2615924839    0.0202003928
C        4.3508161119    0.6230578308   -1.7091896111
C        2.1946086663   -0.8337858590    0.1044148660
N        3.4002231838    0.5239938460    1.8038741517
N        4.1994375675    0.7329327525   -0.2662626946
N        1.5299282379   -0.4742273911   -1.1509255609
O       -0.3712485904    0.3410179505   -0.1766391043
H        4.8362037445    1.8257481997    2.7410524163
H        5.8169732041    2.0999137115    0.1577698515
H       -0.6328666331    1.2297835859   -2.7178005972
H       -1.2634041404   -0.4138283425   -2.6344075658
H        0.3239370521   -0.1145141284   -3.3863661441
H        3.2295503250   -2.5281610058    0.9690261918
H        3.5160066495   -2.3521300691   -0.7672681195
H        1.9542259653   -2.9748324145   -0.1888414333
H        4.3618201985   -0.4254545987   -2.0205614138
H        5.3050571505    1.0669003110   -1.9976472415
H        3.5446932509    1.1453103187   -2.2318620117
H        1.4267047562   -0.7936101060    0.8789292101
H        1.9035787213   -0.8587466982   -2.0080890826
25   
torsion grid (-90,)
C        4.4150217491    1.3466678514    1.8086357041
C        4.8792900674    1.5538643572    0.5306340675
C        3.1915961479    0.1160771009    0.5255443564
C        0.3643901521    0.1405879490   -1.2483005337
C       -0.2619614099    0.2496530814   -2.6304147756
C        2.7914177093   -2.3186781581    0.0199811600
C        4.2247830551    0.6838312722   -1.7390290038
C        2.1767843109   -0.9128581214    0.0909827820
N        3.3680270051    0.4511800620    1.7933357780
N        4.0975273661    0.7546949801   -0.2906692683
N        1.5225493380   -0.5959716307   -1.1812355510
O       -0.1277483953    0.6871504993   -0.2664908758
H        4.7679947335    1.7927181065    2.7295179247
H        5.6609911408    2.1839821529    0.1296199046
H       -0.3399308406    1.3072136898   -2.8961194581
H       -1.2778164775   -0.1522535442   -2.5870903229
H        0.2959505627   -0.2736563374   -3.4128583005
H        3.2631257883   -2.5607414836    0.9748722876
H        3.5613760334   -2.3826280281   -0.7586858282
H        2.0188708990   -3.0654412587   -0.1913200412
H        4.2798747790   -0.3553051478   -2.0746018425
H        5.1501961439    1.1821519324   -2.0330807464
H        3.3827706019    1.1737111167   -2.2345865017
H        1.4066382664   -0.8919221458    0.8651679197
H        1.7957865565   -1.1275522322   -1.9966311683
25   
torsion grid (-75,)
C        4.3575617931    1.3321389418    1.6996501176
C        4.7721004819    1.5877099707    0.4135522655
C        3.1263057292    0.1044187290    0.4226687188
C        0.5014377468    0.2835535388   -1.4244550810
C       -0.1666038300    0.3396774388   -2.7902740251
C        2.7637868535   -2.3398726474   -0.0434443695
C        4.0636542777    0.7741967584   -1.8584501448
C        2.1252147799   -0.9443064457    0.0039493395
N        3.3363105044    0.4075110250    1.6931640084
N        3.9872098405    0.7876820829   -0.4044063846
N        1.4778351654   -0.6696945094   -1.2813789567
O        0.1939795959    1.0482196146   -0.5152529762
H        4.7292422767    1.7620629130    2.6208432510
H        5.5209192613    2.2517441414    0.0046771487
H       -0.1021674821    1.3621640916   -3.1708693984
H       -1.2273941709    0.1016311822   -2.6710463512
H        0.2697134751   -0.3440560468   -3.5246618297
H        3.2319640716   -2.5585662848    0.9183174151
H        3.5396810854   -2.3976558989   -0.8162452643
H        2.0073074614   -3.1058019485   -0.2472671695
H        4.0888125053   -0.2499048004   -2.2372813843
H        4.9859989377    1.2729589853   -2.1621014584
H        3.2134037948    1.2963466494   -2.3048568749
H        1.3594788771   -0.9249577953    0.7842542264
H        1.6141602057   -1.3365086279   -2.0288187320
25   
torsion grid (-60,)
C        4.3327349627    1.3070206353    1.7126773228
C        4.7227423295    1.5871551284    0.4241565693
C        3.1279774741    0.0517866260    0.4385573334
C        0.6647329439    0.3039894895   -1.4440469465
C       -0.0881251404    0.3203378638   -2.7663060704
C        2.8680081570   -2.3985825252   -0.0503464490
C        3.9974911187    0.7891366323   -1.8467891694
C        2.1655403588   -1.0355384966    0.0332206922
N        3.3431915438    0.3482560311    1.7096603724
N        3.9574217886    0.7664104555   -0.3917843069
N        1.4704167359   -0.7854211468   -1.2341567276
O        0.5701118940    1.2182104803   -0.6303253813
H        4.7016836642    1.7402387347    2.6334403092
H        5.4403956298    2.2827111367    0.0118161091
H        0.1453371663    1.2495570809   -3.2924695272
H       -1.1614018991    0.3251407027   -2.5566029686
H        0.1424189445   -0.5273677900   -3.4183293948
H        3.3654976015   -2.6080510799    0.8984880761
H        3.6258855189   -2.4069167753   -0.8418334590
H        2.1449874758   -3.1988158555   -0.2469254798
H        3.9486273502   -0.2231598878   -2.2505061737
H        4.9395097408    1.2417177015   -2.1626989788
H        3.1675281259    1.3743900167   -2.2531977118
H        1.4307510040   -1.0654648702    0.8444654065
H        1.4254699053   -1.5492678234   -1.8948623736
25   
torsion grid (-45,)
C        5.3233582840    1.6451200412    1.1155937797
C        5.5298507725    1.1314101616   -0.1432348352
C        3.7245648289    0.2399851831    0.7755486792
C        1.1339136831    0.2026419093   -0.8339278742
C        0.0905581702   -0.2024379327   -1.8661807095
C        2.9951686100   -2.0437859855    1.5390063735
C        4.2794314185   -0.4888461497   -1.6028732368
C        2.5471850959   -0.6517175976    1.0691404716
N        4.2009627673    1.0788561387    1.6805265211
N        4.5124083320    0.2122991659   -0.3495352588
N        1.6029961064   -0.8151329179   -0.0452159490
O        1.5281815510    1.3610575609   -0.7344260483
H        5.9129561445    2.3843651899    1.6422918060
H        6.2744354991    1.3305112880   -0.9014982371
H        0.4206616184    0.1383164188   -2.8508068761
H       -0.8447596449    0.3163592079   -1.6379447686
H       -0.1022972363   -1.2786261451   -1.9058003925
H        3.6592806915   -1.9392297816    2.3993786141
H        3.5369028733   -2.5764096959    0.7501367958
H        2.1339088387   -2.6509450680    1.8427221567
H        5.2272780702   -0.5817078018   -2.1372605254
H        3.5678176230    0.0587234671   -2.2279675426
H        3.8904121895   -1.4900461624   -1.4144123718
H        2.0391674168   -0.1511808861    1.9004990370
H        1.1851823451   -1.7292881743   -0.1533160738
25   
torsion grid (-30,)
C        5.2804052344    1.7266075478    1.1703722043
C        5.5481986270    1.1806754116   -0.0634261486
C        3.7384443692    0.2627231394    0.8167555022
C        1.2125683506    0.1860345345   -0.8571312736
C        0.0552796824   -0.1962753995   -1.7713638375
C        3.0788882231   -2.0791999638    1.4749578226
C        4.3806638021   -0.4911685021   -1.5285590448
C        2.5930232991   -0.6674374046    1.1076728859
N        4.1556326801    1.1429404462    1.7126692952
N        4.5705055021    0.2228082919   -0.2752001273
N        1.5769766111   -0.7787397342    0.0463673804
O        1.7691964811    1.2760576935   -0.9543740738
H        5.8287248805    2.4983995292    1.6949525586
H        6.3135093200    1.3805296630   -0.8007074095
H        0.3745937365   -0.0720148323   -2.8093296223
H       -0.7685230580    0.5014548075   -1.5973585435
H       -0.3094821744   -1.2179504268   -1.6297982548
H        3.7781041374   -2.0153881721    2.3117553507
H        3.5874788794   -2.5617444649    0.6349108606
H        2.2391236989   -2.7145968419    1.7818600040
H        5.3560821582   -0.7362472540   -1.9557653841
H        3.8145140643    0.1218651195   -2.2354717940
H        3.8369246027   -1.4192732349   -1.3536438252
H        2.1281799556   -0.2262896800    1.9963224569
H        1.0097931415   -1.6153482085    0.0784490239
25   
torsion grid (-15,)
C        5.1271111426    1.7527806632    1.0358831126
C        5.4816244931    1.1633287445   -0.1556834380
C        3.6374071673    0.2439693848    0.6458890175
C        1.1827168397    0.1294935847   -1.1340957412
C       -0.0766627386   -0.1768610677   -1.9363946989
C        2.9837372445   -2.1337135617    1.2041241270
C        4.4320262343   -0.5710294978   -1.6313236716
C        2.5005609905   -0.7029081583    0.9103195683
N        3.9824111716    1.1665855392    1.5312471222
N        4.5372968010    0.1797272819   -0.3892867122
N        1.4376265400   -0.7501214443   -0.1134555041
O        1.8923370183    1.0916095846   -1.4143961261
H        5.6277963888    2.5551890124    1.5621573526
H        6.2877198686    1.3504052237   -0.8518423591
H        0.1858049087   -0.2117262892   -2.9966560372
H       -0.7811436857    0.6486139150   -1.8005508553
H       -0.5709224241   -1.1125386651   -1.6586406036
H        3.7030879866   -2.1125912417    2.0266410514
H        3.4645082135   -2.5883639466    0.3337741071
H        2.1448343795   -2.7731282336    1.5042303077
H        5.4054496717   -0.9980258914   -1.8888329655
H        4.0838006468    0.0798157458   -2.4369953826
H        3.7157950766   -1.3830126260   -1.5143179283
H        2.0614294470   -0.3034369227    1.8308754718
H        0.7501424368   -1.4770997308    0.0350383313
25   
torsion grid (0,)
C        4.9969687866    1.8346323019    1.0646026182
C        5.4379024220    1.2155519417   -0.0827449586
C        3.6021827720    0.2378386921    0.6665763010
C        1.1731148081    0.0178595615   -1.1601884270
C       -0.1865575098   -0.1760361809   -1.8221121755
C        3.0059891410   -2.1861214153    1.1362060100
C        4.5627744241   -0.6324198329   -1.5290371670
C        2.4976298356   -0.7494323604    0.9210770478
N        3.8590808874    1.2121976725    1.5283539886
N        4.5524834302    0.1820708120   -0.3227640937
N        1.3770048771   -0.7510031647   -0.0438853646
O        1.9919908769    0.8069173041   -1.6248174590
H        5.4321727452    2.6811056290    1.5799774428
H        6.2679790450    1.4144519860   -0.7467721071
H       -0.0315595944   -0.3655841505   -2.8869421970
H       -0.7480076830    0.7584612507   -1.7331033621
H       -0.7836370153   -0.9877141220   -1.3959202583
H        3.7659770097   -2.1919314371    1.9224390417
H        3.4415733821   -2.6090094780    0.2278820271
H        2.1851599849   -2.8400591652    1.4528358391
H        5.5070145797   -1.1810857092   -1.6043635797
H        4.4252537767    0.0014569360   -2.4074481697
H        3.7402509749   -1.3432891502   -1.5036991091
H        2.0877712747   -0.3994220856    1.8739155552
H        0.6030442905   -1.3400218884    0.2344428297
25   
torsion grid (15,)
C        4.6178193053    1.9578250053    0.9051200000
C        5.2564954205    1.2563078263   -0.0925308105
C        3.4963970619    0.1319871683    0.6324432808
C        1.0942981965   -0.2112349905   -1.1388747300
C       -0.3525167384   -0.0420740969   -1.5820812821
C        3.0134592658   -2.3603848578    0.9783613117
C        4.8213166825   -0.9092171017   -1.2840623350
C        2.4624886799   -0.9268581130    0.9098655131
N        3.5305251079    1.2460964525    1.3549093631
N        4.5428331376    0.0851203822   -0.2564839601
N        1.2598440848   -0.8885323900    0.0410550868
O        2.0232731453    0.2245884388   -1.8164109208
H        4.8816490442    2.9208222070    1.3229488429
H        6.1283431652    1.4741942833   -0.6935643758
H       -0.4100254581   -0.1943368752   -2.6614481614
H       -0.6593987212    0.9876995167   -1.3724323362
H       -1.0492828321   -0.7212592884   -1.0817157118
H        3.8911201915   -2.4027244482    1.6311979709
H        3.2883167772   -2.7327890972   -0.0100298238
H        2.2518920253   -3.0339162301    1.3849634431
H        5.2848296850   -1.8027836127   -0.8556002528
H        5.5080897091   -0.4734907076   -2.0114907449
H        3.8966408963   -1.1651739378   -1.8012213281
H        2.1069873397   -0.6529468921    1.9066172146
H        0.4052178832   -1.1338675335    0.5240810386
25   
torsion grid (30,)
C        4.3951993105    1.9651601264    0.6584599767
C        5.1300141876    1.2589713340   -0.2669385439
C        3.4255593261    0.0444997341    0.4480918420
C        1.0628278796   -0.3622538690   -1.2904405185
C       -0.3291477595    0.1052899134   -1.6838888390
C        2.9626568300   -2.4848567466    0.6342474470
C        4.9209386476   -0.9897991437   -1.3542471455
C        2.4247844438   -1.0498841891    0.7293041791
N        3.3446854058    1.1987936455    1.1028977230
N        4.5113815007    0.0296909532   -0.3947288606
N        1.1621359367   -0.9272195622   -0.0442804642
O        2.0205847029   -0.2506085214   -2.0545038402
H        4.5701228646    2.9660608259    1.0317674210
H        6.0145134853    1.5060021624   -0.8372612991
H       -0.4800623213   -0.0858301570   -2.7476306446
H       -0.3889106418    1.1869066056   -1.5228698818
H       -1.1268187978   -0.3752801534   -1.1097582939
H        3.9012558243   -2.5871669425    1.1887121264
H        3.1276868394   -2.7809512667   -0.4026700219
H        2.2322941537   -3.1771202513    1.0636409339
H        5.3169041001   -1.8730174991   -0.8463973796
H        5.7071936137   -0.5710037216   -1.9842907452
H        4.0709561242   -1.2576841157   -1.9822338439
H        2.1347731544   -0.8631765253    1.7654704491
H        0.3368559823   -0.8270873856    0.5331097014
25   
torsion grid (45,)
C        4.3383121095    1.9964234451    0.6959521556
C        5.0813752029    1.3087549713   -0.2368328427
C        3.4133208648    0.0521643421    0.4937965073
C        1.0373719157   -0.4691670335   -1.2398365136
C       -0.2994280455    0.1159064254   -1.6622599429
C        2.9197172268   -2.4891055845    0.5582228749
C        4.9417766090   -0.9546764404   -1.3039297007
C        2.4205567253   -1.0541195701    0.7694234794
N        3.3106762237    1.2050898489    1.1491628716
N        4.4880510670    0.0662516321   -0.3637459582
N        1.1257609356   -0.8516131354    0.0741948308
O        1.9676624679   -0.6001129133   -2.0356100547
H        4.4925750506    3.0011642513    1.0681539900
H        5.9558446662    1.5763174468   -0.8132879945
H       -0.5273367114   -0.2162793776   -2.6765288759
H       -0.2113271256    1.2074350882   -1.6761301803
H       -1.1211310213   -0.1581496208   -0.9943779183
H        3.8794895167   -2.6439957541    1.0615141389
H        3.0307088183   -2.7229622287   -0.5007096413
H        2.1928133585   -3.1882999190    0.9813274293
H        5.3650246022   -1.8136017729   -0.7765601961
H        5.7186838819   -0.5173042841   -1.9329983284
H        4.1082441994   -1.2665953488   -1.9322060443
H        2.1839837933   -0.9316618567    1.8283885770
H        0.3852128996   -0.5037426575    0.6705871838
25   
torsion grid (60,)
C        4.4318316559    1.9570403784    0.7687596055
C        5.1259192768    1.3070116499   -0.2268712828
C        3.4709431671    0.0369354369    0.5104447557
C        1.0364302766   -0.6020806958   -1.2720031219
C       -0.2703480168    0.0237732544   -1.7299101904
C        2.9093885079   -2.4997562972    0.4840388446
C        4.9400881738   -0.9234543817   -1.3617497141
C        2.4561100731   -1.0587910300    0.7461108526
N        3.4097836009    1.1588039565    1.2227570069
N        4.5083177022    0.0803068328   -0.3910850204
N        1.1649471483   -0.7721210767    0.0805964039
O        1.9086241720   -0.9352784919   -2.0763997962
H        4.6155200568    2.9403327221    1.1825850640
H        5.9838572387    1.5892722924   -0.8209086702
H       -0.5929091869   -0.4663110853   -2.6503174850
H       -0.0894224977    1.0795919543   -1.9573277851
H       -1.0667013033   -0.0408664721   -0.9831719823
H        3.8585599125   -2.6959091286    0.9928028700
H        3.0236267762   -2.7044036347   -0.5792712794
H        2.1580313765   -3.1878104618    0.8820292837
H        5.3881288920   -1.7843846344   -0.8579821800
H        5.6924680036   -0.4697604687   -2.0088562732
H        4.0902658376   -1.2395639291   -1.9652545422
H        2.2327227766   -0.9716051633    1.8117352009
H        0.5036395262   -0.2594800451    0.6505604828
25   
torsion grid (75,)
C        4.4912115356    1.9993646332    1.0003287965
C        5.1391176920    1.4550864774   -0.0857605649
C        3.4549445261    0.1598433953    0.5337989600
C        0.9919120213   -0.5551917372   -1.4277397845
C       -0.3168428706    0.0342792425   -1.9297312465
C        2.8388733743   -2.3576394812    0.3457097838
C        4.8638635674   -0.6308795568   -1.4579558985
C        2.4010728173   -0.9180475136    0.6402063316
N        3.4489356871    1.1866399743    1.3788890814
N        4.4704545542    0.2817583686   -0.3854460181
N        1.1593366845   -0.5466579874   -0.0723534528
O        1.8211133059   -1.0204586077   -2.2141541811
H        4.7187953661    2.9178390023    1.5260749917
H        5.9954567555    1.7784642633   -0.6610518814
H       -0.8320521051   -0.7218088019   -2.5277836125
H       -0.0880448959    0.8758879704   -2.5894090134
H       -0.9841567758    0.3749222180   -1.1334290573
H        3.7348132346   -2.5928223176    0.9288606942
H        3.0411302438   -2.5262005948   -0.7094691144
H        2.0419171221   -3.0428149905    0.6494252019
H        5.3790942600   -1.5064441841   -1.0515112873
H        5.5477286541   -0.1013355732   -2.1236305715
H        3.9850488025   -0.9412462138   -2.0219530810
H        2.1204300283   -0.8774185785    1.6952718218
H        0.5211077929    0.0310050167    0.4588876762
25   
torsion grid (90,)
C        4.6738017192    1.8806036408    1.1846261111
C        5.2184527649    1.4276898937    0.0042495417
C        3.4883620563    0.1751922809    0.5849081227
C        0.9604973844   -0.6783703010   -1.4872352101
C       -0.3340982599   -0.0900834824   -2.0287806312
C        2.7963340302   -2.3090383591    0.3890777242
C        4.7291085642   -0.4759201708   -1.5610328828
C        2.3816856429   -0.8514722896    0.6245834328
N        3.5994188742    1.0961834115    1.5367099085
N        4.4534663200    0.3413787382   -0.3807016480
N        1.2058992096   -0.4319373529   -0.1680503888
O        1.7067350120   -1.3395039562   -2.2151731648
H        4.9919072383    2.7177891934    1.7926128056
H        6.0590522091    1.7635245322   -0.5871879875
H       -0.9698646043   -0.9110905848   -2.3715640598
H       -0.0985226153    0.5280104228   -2.8989400943
H       -0.8902186608    0.5084230024   -1.3020139310
H        3.5865177984   -2.5657198294    1.1013500332
H        3.1470477507   -2.4976642586   -0.6222752412
H        1.9398086856   -2.9646560298    0.5719669829
H        5.3715689103   -1.3238662457   -1.3017757324
H        5.2444245073    0.1425813384   -2.2988592227
H        3.7981279808   -0.8394440969   -1.9950269041
H        2.0393222435   -0.7851375502    1.6603102794
H        0.6042118089    0.2385961035    0.2914611873
25   
torsion grid (105,)
C        4.8799943970    1.7284965093    1.3425308445
C        5.3166016859    1.3786814163    0.0847253673
C        3.5389165408    0.1855277045    0.6457449966
C        0.9608570926   -0.8071984930   -1.5016654599
C       -0.3008981104   -0.2008029762   -2.0996503876
C        2.7862107431   -2.2608166307    0.4682192189
C        4.5740684152   -0.2875450696   -1.6459401389
C        2.3874819431   -0.7882218331    0.6310460148
N        3.7721736907    0.9830093556    1.6811878550
N        4.4531435960    0.3934335247   -0.3597177237
N        1.2999563736   -0.3389484972   -0.2651263236
O        1.6096622946   -1.6542341291   -2.1212001770
H        5.2939379890    2.4698132545    2.0139652463
H        6.1381089984    1.7277918093   -0.5257928739
H       -1.0322974079   -1.0009774619   -2.2439042435
H       -0.0600929354    0.2045552077   -3.0856382965
H       -0.7529336931    0.5847991810   -1.4878044143
H        3.4518597245   -2.5197557826    1.2971611008
H        3.2888189929   -2.4714983135   -0.4728177318
H        1.8992705415   -2.8980781864    0.5198952997
H        5.3625270339   -1.0464357635   -1.6058305489
H        4.8271549412    0.4446843747   -2.4169653742
H        3.6340302494   -0.7664765815   -1.9163324795
H        1.9752439633   -0.6849504926    1.6385473692
H        0.7400008826    0.4164922312    0.1072541716
25   
torsion grid (120,)
C        5.2216203615    1.6129198884    1.2875046115
C        5.5011685210    1.3162129780   -0.0275441289
C        3.6838332176    0.2449188821    0.6416809950
C        0.9788619398   -0.8984742328   -1.4176922651
C       -0.2434440970   -0.2611209813   -2.0653113111
C        2.8253077525   -2.1514266470    0.6369575963
C        4.3696592498   -0.0809336750   -1.7931387125
C        2.4774986169   -0.6564174585    0.6585267800
N        4.0866913461    0.9432194204    1.6939906097
N        4.5166366061    0.4334072167   -0.4356038419
N        1.4834259650   -0.2153272502   -0.3444619046
O        1.4651500521   -1.9383243594   -1.8641995653
H        5.7683188892    2.2633453199    1.9581400880
H        6.2847475384    1.6411479048   -0.6982867638
H       -1.1192273803   -0.8738869821   -1.8300329529
H       -0.1126129269   -0.2749544038   -3.1493659914
H       -0.4371258349    0.7638730296   -1.7359933100
H        3.4436519902   -2.3510484097    1.5171665580
H        3.3710247940   -2.4542976358   -0.2547518573
H        1.9200647717   -2.7598812770    0.6948477840
H        5.3437079524   -0.4072457855   -2.1666514352
H        3.9750451307    0.6956175886   -2.4566714824
H        3.6859370145   -0.9278801553   -1.8117439111
H        2.0234189337   -0.4559153460    1.6339100888
H        1.0049744327    0.6393150649   -0.0905098669
25   
torsion grid (135,)
C        4.5731136578    1.6458243390    1.4126677698
C        5.0787137908    1.3828476973    0.1593973360
C        3.1820357361    0.2853881062    0.4792849018
C        0.5670982615   -0.6695831547   -1.8961752411
C       -0.4509867853    0.1854281345   -2.6423144259
C        2.3704286360   -2.0907666188    0.1021599254
C        4.3339598968   -0.0660018499   -1.7662972568
C        1.9929491374   -0.6117872664    0.2578459935
N        3.3904375912    0.9621379714    1.5998830627
N        4.1812998545    0.5148313596   -0.4373761357
N        1.1538127730   -0.0475351263   -0.8238687129
O        0.8279662643   -1.8120862147   -2.2691374608
H        4.9856594759    2.2883432968    2.1798084634
H        5.9651800931    1.7254164175   -0.3565523444
H       -1.4515145736   -0.2044393444   -2.4304507993
H       -0.2764874249    0.0793206159   -3.7150663414
H       -0.4257271303    1.2455156699   -2.3736566805
H        2.9566989561   -2.3693880672    0.9832675623
H        2.9591751721   -2.2881038441   -0.7927590832
H        1.4801054733   -2.7184689533    0.0529009673
H        4.9656345794   -0.9593395817   -1.7333922717
H        4.7942725573    0.6698774301   -2.4298142626
H        3.3595196559   -0.3368352174   -2.1699758217
H        1.4190721687   -0.5203183928    1.1862238611
H        0.8258320344    0.8884880661   -0.6208298254
25   
torsion grid (150,)
C        4.5335495014    1.6753135329    1.4506461779
C        5.0481115786    1.4358548547    0.1966741768
C        3.1460376784    0.3352378219    0.4814681388
C        0.3702657231   -0.6308117375   -1.7854807403
C       -0.4352312905    0.3032052754   -2.6823981655
C        2.3714342103   -2.0309885967    0.0484798452
C        4.3226063045    0.0244647039   -1.7610475013
C        1.9607777348   -0.5630174797    0.2414668952
N        3.3480358543    0.9916448027    1.6151550006
N        4.1541076655    0.5802931788   -0.4236144061
N        1.1560306235    0.0100464082   -0.8602300666
O        0.3028109749   -1.8499074678   -1.9242080546
H        4.9414176257    2.3018666479    2.2332846993
H        5.9388498332    1.7864861082   -0.3062782868
H       -1.4987710775    0.1360019829   -2.4892393711
H       -0.2458732691    0.0322130383   -3.7239778655
H       -0.2126420780    1.3647997910   -2.5413221934
H        3.0267597487   -2.3028713226    0.8816069262
H        2.9087131402   -2.1929825788   -0.8874237003
H        1.5010640659   -2.6850276735    0.0428415996
H        4.9015746776   -0.9038426245   -1.7320652434
H        4.8472049366    0.7501875915   -2.3866575856
H        3.3471715862   -0.1766804807   -2.2029087897
H        1.3769490225   -0.4971630162    1.1661203130
H        1.0360501263    1.0129122866   -0.7924339726
25   
torsion grid (165,)
C        4.4976946073    1.6557088243    1.4824639949
C        5.0363169700    1.4456553224    0.2335512931
C        3.1317832478    0.3334623159    0.4591862009
C        0.2278690517   -0.6410492368   -1.6883543326
C       -0.4807366571    0.2496109166   -2.7020032657
C        2.3992645923   -2.0296128153   -0.0314009418
C        4.3609986562    0.0715026682   -1.7654903303
C        1.9598492246   -0.5716390729    0.1861035763
N        3.3121444417    0.9649108441    1.6101544824
N        4.1561046745    0.6022034543   -0.4226723596
N        1.1872071253   -0.0047485823   -0.9401272104
O       -0.0576805118   -1.8313052537   -1.5807857345
H        4.8884461296    2.2664681004    2.2860371425
H        5.9349783251    1.8098815566   -0.2450474669
H       -1.5356825532    0.3237925761   -2.4227551286
H       -0.4348917281   -0.2347334591   -3.6805077198
H       -0.0628413496    1.2574354871   -2.7807952123
H        3.0644125752   -2.3111561845    0.7903823155
H        2.9380767761   -2.1558461869   -0.9736510524
H        1.5381766924   -2.6950213862   -0.0497832616
H        4.9490616329   -0.8511846606   -1.7383516252
H        4.8927632314    0.8131378775   -2.3659675927
H        3.3978992809   -0.1327660060   -2.2328533246
H        1.3525177467   -0.5297683177    1.0967072228
H        1.2094536241    1.0053695058   -1.0004208681
25   
torsion grid (180,)
C        4.5350430458    1.6186409238    1.5681072942
C        5.1203238310    1.4256497303    0.3376923892
C        3.2014992867    0.3220697868    0.4714040349
C        0.2033204521   -0.5565261899   -1.5949848768
C       -0.4712061650    0.2981231368   -2.6593591444
C        2.4725190858   -2.0298700431   -0.0907157803
C        4.5221269731    0.0841408276   -1.7058936943
C        2.0384915146   -0.5711105995    0.1361531476
N        3.3414399408    0.9339607190    1.6383436360
N        4.2617957306    0.5980801426   -0.3658933117
N        1.3198055409    0.0030200408   -1.0216524685
O       -0.2313589595   -1.6656476084   -1.2942203572
H        4.8978502649    2.2137772588    2.3961325882
H        6.0385004268    1.7925607557   -0.1000699506
H       -1.4733656818    0.5636310871   -2.3106152173
H       -0.5883061019   -0.3026641705   -3.5646519843
H        0.0745289003    1.2136091840   -2.9052569145
H        3.0673594890   -2.3549131073    0.7680107245
H        3.0808638692   -2.1352853027   -0.9928566979
H        1.5992120555   -2.6728263340   -0.1914338090
H        5.1445316140   -0.8154532977   -1.6674083133
H        5.0401421962    0.8489249892   -2.2895523503
H        3.5806994579   -0.1549124745   -2.1999501281
H        1.3876600508   -0.5403437444    1.0159851076
H        1.4494766592    0.9972090905   -1.1619607526
