19   
torsion grid (-165,)
C        3.2440432082    1.8510367425    1.5007310652
C        4.6014378574    2.0527082308    1.5153354725
C        4.0837103480    0.4241860657    0.1289678472
C        5.0595971265   -1.3733877392   -1.3753677827
C        4.6107733213   -2.2644935392   -2.5220280589
C        6.5637756754    1.1317786118    0.2482196197
N        2.9265967740    0.8372610398    0.6237886933
N        5.1465294273    1.1375064471    0.6173070239
N        4.0687368608   -0.5635671943   -0.8680742138
O        6.2147205021   -1.3849349786   -0.9605214620
H        2.4808560293    2.3708116015    2.0647641471
H        5.2323725968    2.7368856008    2.0644458153
H        3.5251505090   -2.3655655715   -2.6046509099
H        5.0591615660   -3.2509317832   -2.3899940638
H        4.9922493091   -1.8478917895   -3.4598118028
H        7.0583271016    0.2261112361    0.5933952891
H        7.0224202529    2.0108164567    0.7042176179
H        6.6770321930    1.1951306544   -0.8344987824
H        3.1242017047   -0.7013645008   -1.2075320970
19   
torsion grid (-150,)
C        3.2571546161    1.8199498569    1.5721518326
C        4.6144879972    2.0314744608    1.5490273706
C        4.0544075251    0.4587471003    0.1159384829
C        5.0241239650   -1.3870341399   -1.2822479980
C        4.6856767468   -2.2345548940   -2.4967316314
C        6.5140949684    1.1759704811    0.1299305898
N        2.9127517466    0.8414432966    0.6640168772
N        5.1281975275    1.1623453692    0.5925084198
N        4.0596824693   -0.4600454948   -0.9442424470
O        6.0818490628   -1.5137517563   -0.6736067377
H        2.5122484937    2.3079454230    2.1868289940
H        5.2602771907    2.6946990379    2.1067888135
H        3.6298377530   -2.1991777199   -2.7788470623
H        4.9729644087   -3.2671721577   -2.2894806203
H        5.2830326257   -1.8871373494   -3.3456449840
H        7.0650240879    0.3158627339    0.5079141721
H        6.9723488173    2.1053285120    0.4729615992
H        6.5438998640    1.1525915643   -0.9609185513
H        3.1516214029   -0.5324482457   -1.3866056387
19   
torsion grid (-135,)
C        3.3052952852    1.7644922757    1.6686688134
C        4.6596294433    1.9978834397    1.6116379989
C        4.0660277645    0.5065460373    0.1074072255
C        4.9838911350   -1.4004553758   -1.1920401748
C        4.6982745829   -2.2603214584   -2.4106096331
C        6.5168821394    1.1945666309    0.0923739360
N        2.9405409851    0.8330471434    0.7186552921
N        5.1451412685    1.1972987199    0.5867690802
N        4.0947729034   -0.3567960464   -0.9995111489
O        5.9517322291   -1.5941773841   -0.4650473519
H        2.5768202210    2.2055562262    2.3362927635
H        5.3161793337    2.6346076847    2.1875711809
H        3.6802190642   -2.1524603629   -2.7948429041
H        4.8811411822   -3.3041002020   -2.1488571953
H        5.3990517605   -1.9884321231   -3.2064012669
H        7.0780894997    0.3521757102    0.4977594783
H        6.9860009861    2.1392258631    0.3742663981
H        6.5135437668    1.1161694293   -0.9966218096
H        3.2121719285   -0.3900763663   -1.4951988562
19   
torsion grid (-120,)
C        3.1414562368    1.0530792077    1.4073228260
C        4.4652450850    1.4157931380    1.3024489993
C        3.8648615981    0.1612163139   -0.4012864405
C        4.7499215590   -1.6061190881   -1.8699292950
C        4.3868594353   -2.4164282699   -3.1011529203
C        6.2632370616    0.9762874926   -0.4328990690
N        2.7740449696    0.2637285708    0.3362824336
N        4.9222344015    0.8513405192    0.1214810162
N        3.9147310891   -0.5201675455   -1.6312301449
O        5.7036871002   -1.8743639482   -1.1510899287
H        2.4373581653    1.3086436218    2.1883134578
H        5.1150602693    1.9998695159    1.9387385358
H        3.9492739730   -1.8027271654   -3.8938134919
H        3.6583711470   -3.1848578329   -2.8194721556
H        5.2819859396   -2.9155639689   -3.4734796723
H        6.8818180056    0.1232397473   -0.1488626877
H        6.7070740330    1.9065392350   -0.0725633033
H        6.2016972710    1.0138027067   -1.5224541072
H        3.0264776125   -0.5145420425   -2.1202147802
19   
torsion grid (-105,)
C        3.1636687995    1.0021752387    1.3954866558
C        4.4667478478    1.4361037637    1.2878120159
C        3.8900116447    0.2532915981   -0.4749372506
C        4.7308559603   -1.5873045628   -1.8399416427
C        4.3795640396   -2.4187895539   -3.0594924019
C        6.2678770620    1.0995304732   -0.4700520930
N        2.8150581403    0.2508998282    0.2915470252
N        4.9242005488    0.9601552872    0.0710182011
N        3.9990793277   -0.4052596088   -1.7166127079
O        5.5986180654   -1.9018185245   -1.0380944542
H        2.4633427402    1.1819402721    2.2007044808
H        5.0985576769    2.0183504373    1.9437081819
H        4.1117339273   -1.7996752734   -3.9207926289
H        3.5239177430   -3.0599301109   -2.8197372945
H        5.2269717401   -3.0564080449   -3.3124660968
H        6.9070845346    0.2820208564   -0.1285326571
H        6.6834181554    2.0601825308   -0.1580441981
H        6.2176189909    1.0714988451   -1.5598853303
H        3.1506669683   -0.3532712129   -2.2704370512
19   
torsion grid (-90,)
C        3.2043414181    0.8852199047    1.4013303386
C        4.4760502222    1.4053007393    1.2880186702
C        3.9368909987    0.2567881894   -0.5103191502
C        4.6910426884   -1.6491398512   -1.8106943569
C        4.3388316345   -2.4587043220   -3.0443051694
C        6.2784479430    1.1862543841   -0.4853667037
N        2.8835020319    0.1518049289    0.2786025833
N        4.9371781913    1.0042703518    0.0480448615
N        4.0999854471   -0.3823702285   -1.7589440907
O        5.4509917473   -2.0432151197   -0.9394345016
H        2.5088699776    0.9937419955    2.2234191110
H        5.0809415158    2.0040172809    1.9545136419
H        4.2210088150   -1.8302326908   -3.9322242219
H        3.3923206260   -2.9819488266   -2.8682525311
H        5.1170248133   -3.2020600029   -3.2186305257
H        6.9408430296    0.3900815364   -0.1349365427
H        6.6662700991    2.1582839211   -0.1728069828
H        6.2345813589    1.1526436194   -1.5749924506
H        3.3144562741   -0.2489354430   -2.3876590905
19   
torsion grid (-75,)
C        3.2411184881    0.7844039148    1.3989861100
C        4.4747406303    1.3903236590    1.2830382342
C        4.0022017643    0.2185420017   -0.5220844688
C        4.5954844709   -1.7522799557   -1.8056589765
C        4.2506866552   -2.4721811532   -3.0962850721
C        6.2771978254    1.3160122557   -0.4949102401
N        2.9631188547    0.0423115387    0.2728665351
N        4.9577532363    1.0237220329    0.0424282857
N        4.2085318642   -0.4058230396   -1.7725978523
O        5.1851730165   -2.2786083676   -0.8769330849
H        2.5459008940    0.8389107921    2.2267270506
H        5.0377413245    2.0298687148    1.9485457824
H        4.3264548621   -1.8174175640   -3.9699075238
H        3.2205268693   -2.8401522210   -3.0335783346
H        4.9162475498   -3.3271084514   -3.2174258962
H        7.0405622945    0.7272763403    0.0219946634
H        6.4995429602    2.3806034649   -0.3849202223
H        6.2884677548    1.0535207002   -1.5530168111
H        3.5384692220   -0.1388749812   -2.4870857998
19   
torsion grid (-60,)
C        3.3223853595    0.6553985595    1.4208863893
C        4.5085414913    1.3477611844    1.2922827748
C        4.1147838561    0.1181133801   -0.4963172958
C        4.5225134260   -1.8900661125   -1.8112297096
C        4.2041842977   -2.4862786458   -3.1710013964
C        6.2901257463    1.4133963251   -0.5050693048
N        3.0922298125   -0.1152215113    0.3045299276
N        5.0184622186    0.9913435157    0.0596738324
N        4.3589985356   -0.4986065799   -1.7429534138
O        4.9128572331   -2.5484469719   -0.8637746384
H        2.6296473681    0.6676693588    2.2524309341
H        5.0222510111    2.0406795671    1.9441990149
H        4.4822479880   -1.8199922598   -3.9937581651
H        3.1266264370   -2.6747465805   -3.2336422937
H        4.7278955842   -3.4367820847   -3.2747230402
H        7.1081143267    1.1576466777    0.1739774170
H        6.2952752968    2.4925466599   -0.6867397202
H        6.4398203324    0.8886423213   -1.4489445980
H        3.8525410826   -0.0947096395   -2.5249861807
19   
torsion grid (-45,)
C        3.3823905309    0.5258127234    1.4125356978
C        4.5172578125    1.2917530420    1.2510539592
C        4.1881989918   -0.0151270756   -0.4977087726
C        4.4032805186   -2.0295177910   -1.8780410684
C        4.1382980465   -2.4888509286   -3.3018323336
C        6.2645462778    1.4322802467   -0.5793513228
N        3.1897499757   -0.2882437793    0.3193391953
N        5.0431068798    0.9268770893    0.0255079079
N        4.4613450384   -0.6346114627   -1.7354293711
O        4.5771853007   -2.7965288838   -0.9494054544
H        2.6993406947    0.5139889783    2.2520228855
H        4.9870347069    2.0405403671    1.8735709285
H        4.6180698707   -1.8437396481   -4.0450644728
H        3.0582607208   -2.4769173951   -3.4866848503
H        4.4977759260   -3.5113986114   -3.4177655301
H        7.0460965409    1.5127893258    0.1798672017
H        6.1063327165    2.4159556036   -1.0345989477
H        6.5911837053    0.7297106824   -1.3474270461
H        4.1516822770   -0.1173185824   -2.5525927843
19   
torsion grid (-30,)
C        3.4651767760    0.5297618512    1.4905812823
C        4.5436900713    1.3530021661    1.2553356378
C        4.2535186688   -0.0731282265   -0.4074531436
C        4.2841155311   -2.0918387530   -1.8327885956
C        4.1319532435   -2.4555258244   -3.3015577065
C        6.2367828208    1.4858170681   -0.6309970871
N        3.2942429429   -0.3570408702    0.4494960084
N        5.0640650755    0.9469499240    0.0368269820
N        4.5410182556   -0.7288610461   -1.6199931091
O        4.2151299049   -2.9076392597   -0.9337907525
H        2.8042637824    0.5242177991    2.3476086255
H        4.9774076029    2.1684514738    1.8170361225
H        4.7963021688   -1.8738539748   -3.9491860925
H        3.0990189391   -2.2661172506   -3.6145622008
H        4.3407385351   -3.5182735283   -3.4254064045
H        6.9571935048    1.8242690489    0.1165201598
H        5.9796703833    2.3304631727   -1.2805202820
H        6.7001819814    0.6998050050   -1.2308976786
H        4.4529834405   -0.1526364674   -2.4507278011
19   
torsion grid (-15,)
C        3.5242545802    0.6211931267    1.6312316265
C        4.5408805214    1.4913085623    1.3165088356
C        4.2888478412   -0.0451611685   -0.2542359836
C        4.1556286266   -2.0261489695   -1.7604989827
C        4.2121183045   -2.3263334262   -3.2519735690
C        6.1656745960    1.6129435902   -0.6350005032
N        3.3748331872   -0.3355155923    0.6467088559
N        5.0487689013    1.0470996798    0.1012505714
N        4.5833147603   -0.7301960649   -1.4446372860
O        3.7901820146   -2.8390942317   -0.9338564023
H        2.8888693652    0.6255425771    2.5072840018
H        4.9432737624    2.3610612045    1.8163083980
H        5.0503224756   -1.8310041465   -3.7532230028
H        3.2830006048   -1.9882891235   -3.7244334289
H        4.2936004717   -3.4048738895   -3.3887625019
H        6.7545362916    2.2410104061    0.0352397044
H        5.8274359636    2.2294454604   -1.4767411974
H        6.8089925214    0.8125902055   -1.0110229335
H        4.7637789956   -0.1376578736   -2.2466081961
19   
torsion grid (0,)
C        3.8029615490    0.4501638935    1.8308475895
C        4.6432331784    1.4362015769    1.3777395709
C        4.3832439961   -0.1551502867   -0.1389149552
C        3.9912137911   -1.9931232843   -1.7990964118
C        4.5683068025   -2.4917247101   -3.1187101365
C        5.8850704740    1.7758291142   -0.8142539387
N        3.6437731374   -0.5398175940    0.8786217846
N        5.0193139664    1.0453707414    0.0938852661
N        4.5629490738   -0.7933618742   -1.3711468854
O        3.1311400646   -2.5970618843   -1.1871941657
H        3.3000073972    0.3887717963    2.7870938817
H        5.0105989681    2.3508432265    1.8208465000
H        5.3950449100   -3.1795637324   -2.9105438076
H        4.9418653679   -1.6891056743   -3.7629957523
H        3.7928720234   -3.0468376687   -3.6480188003
H        6.1845549563    2.7121933825   -0.3423156835
H        5.3638803729    2.0178584771   -1.7472733096
H        6.7955079324    1.2090759503   -1.0435264530
H        5.2966902609   -0.4213195656   -1.9579856741
19   
torsion grid (15,)
C        3.9458966370    0.3318322332    1.8638059897
C        4.6854115655    1.3923672408    1.3968257916
C        4.5041396682   -0.1920943068   -0.1355780749
C        3.9235954689   -1.8654645422   -1.8886935644
C        4.6102979879   -2.5982387744   -3.0329153338
C        5.7850875042    1.8753212086   -0.8438338864
N        3.8360225673   -0.6516505138    0.9006960733
N        5.0318493067    1.0594596296    0.0925014412
N        4.6759277786   -0.7924846572   -1.3937717459
O        2.8276203522   -2.1767347376   -1.4647816919
H        3.4858968314    0.2154079656    2.8364554631
H        4.9969666435    2.3243147686    1.8469346031
H        5.2828217168   -3.3599472576   -2.6227219254
H        5.1985763080   -1.9312195256   -3.6718245515
H        3.8505960389   -3.0991251979   -3.6333890295
H        5.7799226341    2.9109768015   -0.5005530789
H        5.3179890615    1.8375552175   -1.8318651602
H        6.8275716052    1.5441312431   -0.9247309582
H        5.6093800006   -0.7169619779   -1.7807957387
19   
torsion grid (30,)
C        3.9700637157    0.1846019566    1.7700349571
C        4.6161870794    1.3047840149    1.2967266357
C        4.5820975258   -0.2969219363   -0.2252636900
C        3.9010887472   -1.8269074312   -2.0427537090
C        4.5507205504   -2.7405191379   -3.0703938652
C        5.6754998834    1.8730965106   -0.9387526885
N        3.9521815636   -0.8070398033    0.8130845153
N        4.9925565864    0.9978212586   -0.0011453617
N        4.7909401961   -0.8985131696   -1.4811081053
O        2.7207318632   -1.8798683596   -1.7558335500
H        3.5174697610    0.0359191944    2.7418313175
H        4.8436711388    2.2618068800    1.7449848192
H        5.0228482087   -3.5844345388   -2.5549514435
H        5.3182075429   -2.2294199647   -3.6610341307
H        3.7787697259   -3.1298160474   -3.7344131396
H        5.3823959501    2.9077873976   -0.7494662224
H        5.3807128755    1.6078905829   -1.9562029713
H        6.7647678748    1.7928480195   -0.8467492665
H        5.7635573526   -1.0502023093   -1.7278637192
19   
torsion grid (45,)
C        4.0261248288    0.0850464244    1.7679170206
C        4.5749866170    1.2534089724    1.2838246233
C        4.6912062412   -0.3589267731   -0.2199320550
C        3.9624418176   -1.7249565519   -2.1205095213
C        4.5246188633   -2.7518889178   -3.0888931438
C        5.5984311283    1.8913429060   -0.9452392263
N        4.0994126128   -0.9114047150    0.8210291480
N        4.9867617149    0.9670714111   -0.0046126790
N        4.9456588382   -0.9653236923   -1.4680659456
O        2.7704886712   -1.5543892217   -1.9442391689
H        3.5824946916   -0.0913346637    2.7392657129
H        4.7082139386    2.2331663806    1.7211187207
H        4.7857005744   -3.6607548363   -2.5351853200
H        5.4241904615   -2.3948478359   -3.6007904962
H        3.7598836082   -3.0024991590   -3.8241773376
H        5.0904485601    2.8573990112   -0.8962218376
H        5.4901241533    1.4875958867   -1.9529575010
H        6.6621742410    2.0358399240   -0.7273575372
H        5.8924539990   -1.3105404364   -1.5931268509
19   
torsion grid (60,)
C        4.1288847777    0.1030393386    1.8661104877
C        4.5936798390    1.2906382826    1.3403013892
C        4.8026886498   -0.3526371792   -0.1164689196
C        4.0135334698   -1.5387509979   -2.0908631037
C        4.4370950006   -2.6437782623   -3.0423592261
C        5.5345502259    1.9339185093   -0.9201694771
N        4.2548089246   -0.9119556943    0.9457913169
N        5.0184671188    0.9928470192    0.0607555870
N        5.0683991692   -0.9839053743   -1.3513230551
O        2.8664290023   -1.1418949772   -1.9901500969
H        3.7102027530   -0.0728979391    2.8485861945
H        4.6599348156    2.2907224405    1.7458512252
H        4.4671308927   -3.5926373042   -2.4952403465
H        5.4279863555   -2.4665813153   -3.4723982563
H        3.6996696023   -2.7284095207   -3.8408076998
H        4.8119845630    2.7369847051   -1.0892678114
H        5.6944872698    1.4017770276   -1.8582121580
H        6.4821462382    2.3654144332   -0.5833068166
H        5.9306525872   -1.5195495065   -1.3796242038
19   
torsion grid (75,)
C        4.2527073608    0.0913202277    1.9570221482
C        4.6369578776    1.2804722962    1.3733499348
C        4.9109083211   -0.4036035805   -0.0207958547
C        4.1076714498   -1.4153214400   -2.0738329692
C        4.3955489485   -2.5695191736   -3.0160706442
C        5.4545816643    1.8827187250   -0.9470560187
N        4.4128953087   -0.9514881054    1.0721360432
N        5.0622237875    0.9537366640    0.1008701195
N        5.1779452866   -1.0694837700   -1.2379559130
O        3.0491745205   -0.8099866907   -2.0529881656
H        3.8692158005   -0.0683551962    2.9564675099
H        4.6471894290    2.2994666599    1.7345061580
H        4.2025679259   -3.5123717207   -2.4922867651
H        5.4348169379   -2.5762721839   -3.3589216592
H        3.7248905375   -2.5068758315   -3.8732997838
H        4.5814058435    2.4176913948   -1.3316255870
H        5.9068893553    1.3175203949   -1.7622767165
H        6.1817620171    2.6006368574   -0.5588634968
H        5.9129892234   -1.7672710646   -1.1784640382
19   
torsion grid (90,)
C        4.3339120327    0.1111266534    2.0243851530
C        4.6453381184    1.2906232433    1.3822292638
C        4.9414400946   -0.4312112900    0.0437973572
C        4.1784384716   -1.2951948000   -2.0924716383
C        4.3625571095   -2.4728442070   -3.0308103621
C        5.3480994829    1.8268947045   -0.9968652153
N        4.5040971859   -0.9593226322    1.1720144264
N        5.0462834195    0.9310754490    0.1090558348
N        5.2013459262   -1.1366825711   -1.1515898106
O        3.2363150513   -0.5206456042   -2.1587374894
H        3.9957662815   -0.0258297165    3.0432998915
H        4.6180892439    2.3233133959    1.7006305348
H        3.9685106335   -3.3754761322   -2.5505544731
H        5.4149197795   -2.6477599927   -3.2741131317
H        3.7969545356   -2.2934329232   -3.9453906060
H        4.4305846127    2.1155461566   -1.5167768877
H        6.0040709826    1.3128872262   -1.7010219725
H        5.8569069908    2.7158032231   -0.6175265319
H        5.7945127060   -1.9498384776   -1.0209212885
19   
torsion grid (105,)
C        4.4331678442    0.1319867714    2.0956284132
C        4.6704612298    1.2977746818    1.4009825474
C        4.9227323519   -0.4540537376    0.0946854667
C        4.2394022581   -1.2478555963   -2.1100795496
C        4.3976973603   -2.4290890623   -3.0490728815
C        5.2728232045    1.7845922835   -1.0171990454
N        4.5814152311   -0.9603167657    1.2652533713
N        4.9995463824    0.9101380341    0.1134196999
N        5.1701734356   -1.2074522865   -1.0708644515
O        3.3882587305   -0.3821579120   -2.2550333905
H        4.1612248185    0.0174840203    3.1368219039
H        4.6336489695    2.3390564603    1.6886834385
H        3.8613531162   -3.2895203749   -2.6335405089
H        5.4453176288   -2.7131396308   -3.1857495970
H        3.9539444328   -2.1800644053   -4.0132943505
H        4.3472610729    2.0415068987   -1.5376540241
H        5.9340342782    1.2681700426   -1.7151648367
H        5.7696665977    2.6893741605   -0.6602787958
H        5.6617956754   -2.0755439949   -0.8866041318
19   
torsion grid (120,)
C        4.4680224769    0.1436996856    2.1389011441
C        4.6458500180    1.2933272172    1.4028908769
C        4.8089657393   -0.4852871631    0.1195107307
C        4.2410414798   -1.2546982968   -2.1496721335
C        4.4244648053   -2.4400914820   -3.0800082055
C        5.1549999035    1.7390700415   -1.0424020943
N        4.5687754366   -0.9669774346    1.3256121865
N        4.8842796264    0.8791169251    0.1014633801
N        5.0389693543   -1.2901922338   -1.0113119119
O        3.4663144064   -0.3361385979   -2.3829109951
H        4.2702424414    0.0514814548    3.1988032823
H        4.6203373686    2.3410430180    1.6672966516
H        3.7474896165   -3.2439327213   -2.7700609638
H        5.4468202592   -2.8287777368   -3.0684587859
H        4.1558903312   -2.1400968571   -4.0933621858
H        4.2402429937    1.9388793869   -1.6030321540
H        5.8681777828    1.2447591793   -1.7052439653
H        5.5947402919    2.6720856500   -0.6841952139
H        5.4595200096   -2.1832166187   -0.7794134932
19   
torsion grid (135,)
C        4.8418905897    0.7284107745    2.5185387279
C        4.8854970727    1.8609823742    1.7392298001
C        4.7349782984    0.0612121082    0.4833341869
C        3.9430157116   -0.6765313838   -1.7519750544
C        4.0665520997   -1.8205592891   -2.7428280492
C        4.9642608618    2.2729377310   -0.7561227902
N        4.7536499882   -0.3955419096    1.7235007960
N        4.8366305630    1.4240495461    0.4225189458
N        4.7465172985   -0.7935149281   -0.6305755710
O        3.2197096080    0.2920592634   -1.9555229680
H        4.8640592096    0.6564956074    3.5980163641
H        4.9394474037    2.9129245335    1.9814684261
H        3.0722802126   -2.0549403162   -3.1274042746
H        4.5164519180   -2.7221593452   -2.3180688847
H        4.6814918123   -1.4916729643   -3.5866246234
H        3.9883732155    2.4862939019   -1.1932071905
H        5.5765333837    1.7684542307   -1.5062381966
H        5.4630606920    3.1982228119   -0.4612234433
H        5.1396788262   -1.7036758915   -0.4235976365
19   
torsion grid (150,)
C        4.9508459602    0.6755484424    2.5080360949
C        4.9557669484    1.8147074199    1.7399730507
C        4.6941852814    0.0331161427    0.4756662504
C        4.0038728054   -0.6779511292   -1.8308515636
C        4.1411605513   -1.8552116756   -2.7811239954
C        4.9274047856    2.2776413597   -0.7377438994
N        4.7977923213   -0.4368058626    1.7080088262
N        4.8078110694    1.3967059965    0.4217929993
N        4.6367893558   -0.8457242185   -0.6163681154
O        3.3940543428    0.3409127924   -2.1395960490
H        5.0442285079    0.5902701907    3.5826805122
H        5.0425647324    2.8629782853    1.9881711805
H        3.1758040924   -2.0275222849   -3.2608888662
H        4.4774358833   -2.7760526997   -2.2967585056
H        4.8597103254   -1.5932388671   -3.5642258062
H        3.9563611163    2.4626149257   -1.1949503373
H        5.5801304129    1.8238672922   -1.4856915367
H        5.3772841141    3.2137144377   -0.4019636021
H        4.9702783158   -1.7710092465   -0.3752549593
19   
torsion grid (165,)
C        3.2077500073    1.8145766126    1.3385438858
C        4.5608705345    2.0358473801    1.3966159993
C        4.1093163230    0.4226927170   -0.0298749111
C        5.1287967149   -1.1186355221   -1.7708656225
C        4.7598882149   -2.3790174838   -2.5362733666
C        6.5983531727    0.9515259627    0.4083911578
N        2.9333907320    0.7973758897    0.4509817793
N        5.1482859253    1.1265583950    0.5192774271
N        4.1508603008   -0.6663023777   -0.9145751109
O        6.2138238007   -0.5661033925   -1.9263426391
H        2.4193419779    2.3232586790    1.8774427647
H        5.1632221637    2.7348603867    1.9589690388
H        3.7441403216   -2.7364100452   -2.3479210623
H        5.4674795439   -3.1678991744   -2.2659617731
H        4.8802924666   -2.1826504255   -3.6046237819
H        6.8693654286   -0.0942210025    0.5553442196
H        7.0593535784    1.5513086430    1.1950179450
H        6.9611099400    1.2669888715   -0.5678125343
H        3.2523237626   -1.1336358016   -0.9341328021
19   
torsion grid (180,)
C        3.2116996061    1.7676854050    1.3884591242
C        4.5594731574    2.0161497692    1.4460929361
C        4.1428065199    0.3986398453    0.0137787215
C        5.1780857832   -1.2540222359   -1.6347737165
C        4.7062135429   -2.3536926500   -2.5730583107
C        6.6175449908    1.1012240466    0.3482472573
N        2.9584698053    0.7549746979    0.4910529298
N        5.1659568087    1.1301083539    0.5563491960
N        4.1682117252   -0.6342355299   -0.9377353876
O        6.3676760898   -0.9695421395   -1.5289109265
H        2.4136625941    2.2528521221    1.9347595677
H        5.1486012196    2.7187714151    2.0176462136
H        3.6213829088   -2.4845543271   -2.6027281181
H        5.1694616181   -3.2945188823   -2.2631777400
H        5.0667400557   -2.1269325791   -3.5797361490
H        7.0303960648    0.1278529766    0.6073489407
H        7.0488103998    1.8662951547    0.9959724933
H        6.8681970635    1.3164099060   -0.6889211050
H        3.2203223476   -0.9503434527   -1.1063588383
