25   
torsion grid (-165,)
C       -0.1251658294    2.0414772491    0.6288752272
N        0.1328669369    0.8451010376    1.4917079526
C        1.2709851645    1.1221638440    2.4417108088
C        0.5514746309   -0.3079076059    0.6002938227
C       -1.1234969540    0.5661457521    2.3447190096
C       -2.0978919459   -0.4864397066    1.8123936871
O       -1.5784281637   -1.7965812231    1.7834337715
P       -0.8648791661   -2.3081144061    3.2287284150
O       -0.9731273955   -3.9048182839    2.8763642109
O        0.5736630116   -1.8332562347    3.1638705817
O       -1.7401472951   -1.8992274592    4.3742912577
H       -0.9916128999    1.8399424102   -0.0027883747
H       -0.3210862675    2.9085173146    1.2610423263
H        0.7485982473    2.2303691513    0.0038199104
H        1.4387599762    0.2031699522    3.0093809501
H        2.1526883484    1.3995681406    1.8605925984
H        0.9833750383    1.9438668588    3.0999413073
H        0.7786121550   -1.1616040033    1.2400455749
H       -0.2601118582   -0.5444273708   -0.0842148672
H        1.4296076377    0.0271841312    0.0442232667
H       -0.7764976002    0.2575322633    3.3278931792
H       -1.6384456820    1.5249485181    2.4420051436
H       -2.9675636023   -0.4273910860    2.4805904621
H       -2.4360683599   -0.2465525779    0.7970681595
H       -0.8285507012   -4.4234683664    3.6840111233
25   
torsion grid (-150,)
C       -0.5615633634    2.0760323121    0.7596536961
N        0.0816518742    0.9318861168    1.4804259096
C        1.2581820435    1.4189061078    2.2882722190
C        0.6080991941   -0.0487435165    0.4505383273
C       -0.9394144572    0.3291121163    2.4689218734
C       -1.7320857593   -0.8861366191    1.9832355865
O       -0.9539566731   -2.0417083648    1.7692566331
P        0.0591338121   -2.4669491726    3.0584086532
O        0.2833778709   -4.0160624362    2.5764478037
O        1.3183284709   -1.6485499751    2.8572508787
O       -0.7136542495   -2.3744993404    4.3389719743
H       -1.4462040440    1.7100943064    0.2364053197
H       -0.8480881864    2.8431444376    1.4802303631
H        0.1448537038    2.4913795522    0.0397205688
H        1.7074443769    0.5379488058    2.7536238480
H        1.9605321145    1.9187875538    1.6183085600
H        0.8970123807    2.1205638414    3.0422204717
H        1.1085996262   -0.8578774012    0.9836782718
H       -0.2231960697   -0.4314774416   -0.1373119849
H        1.2991596694    0.5061400632   -0.1875357629
H       -0.3866452170    0.0544012756    3.3638703679
H       -1.6287086600    1.1395656479    2.7180891992
H       -2.4829500474   -1.0623848671    2.7654435844
H       -2.2645300384   -0.6723376250    1.0484455739
H        0.4276459079   -4.5706532834    3.3599568900
25   
torsion grid (-135,)
C        1.1711525220    0.9914573564    3.1531167024
N        0.1081073384    0.3816259671    2.2927138459
C       -0.6156496984   -0.7041695424    3.0482920167
C        0.7735650102   -0.2617702493    1.0916945798
C       -0.9295711389    1.4682314422    1.9384753862
C       -0.7460303965    2.1826763478    0.5979765631
O       -0.9263799401    1.3596652020   -0.5316397463
P       -2.3614142441    0.4529338721   -0.5355245755
O       -2.3591098846    0.1136219676   -2.1360814051
O       -2.0365794062   -0.7858773971    0.2714106029
O       -3.5001442566    1.3506632089   -0.1569127982
H        1.6344274040    1.8160454183    2.6093418802
H        0.7224036925    1.3617343369    4.0757832681
H        1.9236092903    0.2367432102    3.3856360532
H       -1.3442348814   -1.1368172003    2.3582734223
H        0.1129245937   -1.4475569331    3.3777805406
H       -1.1104816923   -0.2573835208    3.9124273537
H       -0.0045214244   -0.7337822513    0.4909461742
H        1.2923382974    0.5025923315    0.5175070982
H        1.4861853252   -0.9921383857    1.4807328382
H       -1.9043048799    0.9871617456    1.9518311958
H       -0.8869538743    2.1979781333    2.7507248907
H       -1.4856762183    2.9950094092    0.6095869365
H        0.2492475016    2.6369001462    0.5175636532
H       -3.2551778510    0.2572599887   -2.4809796863
25   
torsion grid (-120,)
C        1.1080742268    1.0740085732    3.1375579499
N        0.0945446979    0.2995709355    2.3531987143
C       -0.4914379897   -0.8009497694    3.2012715508
C        0.7945470931   -0.3521860543    1.1766118215
C       -1.0603041198    1.2460762068    1.9612469813
C       -0.9869650763    1.8804334310    0.5708331270
O       -1.1079037071    0.9664136036   -0.4947326955
P       -2.4415543338   -0.0851314778   -0.3929300118
O       -2.4547444745   -0.5575086493   -1.9572131914
O       -1.9666418477   -1.2212280378    0.4846688513
O       -3.6525936954    0.7283201550   -0.0495033972
H        1.4679300319    1.9030578656    2.5264619275
H        0.6456236070    1.4580194091    4.0477618656
H        1.9416531039    0.4192512950    3.3950217490
H       -1.1863666356   -1.3540909365    2.5648016027
H        0.3196798218   -1.4396696928    3.5564085069
H       -1.0099320221   -0.3495054269    4.0489560661
H        0.0563630681   -0.9424162816    0.6329419723
H        1.2153601914    0.4206814825    0.5373603265
H        1.5896307954   -0.9763298328    1.5900226170
H       -1.9783997209    0.6692082221    2.0384780462
H       -1.0739877947    2.0309399390    2.7214283256
H       -1.8079444595    2.6104903524    0.5526766602
H       -0.0475521498    2.4291198057    0.4290057604
H       -3.3116616892   -0.3107782320   -2.3417209827
25   
torsion grid (-105,)
C        1.1940435210    0.9438873392    3.2271159161
N        0.1819437933    0.3314562207    2.3090053016
C       -0.5912640259   -0.7446113432    3.0287891455
C        0.9158593402   -0.3251657195    1.1560065460
C       -0.8265581505    1.4201345826    1.8835522875
C       -0.5610671413    2.1194567399    0.5488447530
O       -0.6772380768    1.2837152710   -0.5798945619
P       -2.1180904613    0.3755588899   -0.6598049553
O       -2.0491642898   -0.0190774087   -2.2421416112
O       -1.8454204641   -0.8561219093    0.1713836084
O       -3.2530284984    1.3087171227   -0.3652943938
H        1.6941588370    1.7610077063    2.7051486216
H        0.6919641340    1.3250275017    4.1172991803
H        1.9266460228    0.1875672038    3.5119221118
H       -1.2788981570   -1.1808995695    2.3002460293
H        0.1126377905   -1.4880507251    3.4080160305
H       -1.1351246432   -0.2881314609    3.8576718608
H        0.1740528928   -0.8006716362    0.5138763478
H        1.4705266797    0.4322753708    0.6068084699
H        1.6012961853   -1.0539866177    1.5937699101
H       -1.8035363644    0.9451093339    1.8449728881
H       -0.8273576021    2.1576586507    2.6898511916
H       -1.2981452544    2.9333300165    0.5086301651
H        0.4387829782    2.5706498952    0.5239895081
H       -2.6950140870    0.5245065445   -2.7227935064
25   
torsion grid (-90,)
C        0.9517586811    1.1824698848    3.0741090801
N        0.0042154046    0.2192274530    2.4285713262
C       -0.3699475398   -0.8731550968    3.3985489898
C        0.7088061082   -0.4322814411    1.2545013006
C       -1.2916454074    0.9711641074    2.0558268508
C       -1.3989107188    1.4875640698    0.6196639025
O       -1.4631768460    0.4749071542   -0.3585836008
P       -2.6270227678   -0.7406602405   -0.0644803894
O       -2.6905854961   -1.3685394577   -1.5684039599
O       -1.9423526319   -1.7349596625    0.8416201233
O       -3.8947303447   -0.0390637439    0.3168552103
H        1.1548924656    1.9970514977    2.3773690222
H        0.5013695268    1.5779338216    3.9854444292
H        1.8816135513    0.6660804837    3.3160434657
H       -1.0243048376   -1.5635460235    2.8607748193
H        0.5419473764   -1.3696390998    3.7361251328
H       -0.8867384139   -0.4232114256    4.2480650768
H        0.0270368580   -1.1617907846    0.8166353752
H        0.9729891407    0.3315799477    0.5267213540
H        1.6094519314   -0.9054481810    1.6514405122
H       -2.1169507156    0.2902246182    2.2479665998
H       -1.3611688727    1.8095922840    2.7531110622
H       -2.3128048457    2.0974074682    0.6102400323
H       -0.5556919253    2.1415759393    0.3640268963
H       -3.3733848942   -0.9009479641   -2.0775683420
25   
torsion grid (-75,)
C        0.9805934625    1.1850104954    3.0582047134
N        0.0219679233    0.2355866419    2.4086060361
C       -0.3717553693   -0.8518066184    3.3764574283
C        0.7215886030   -0.4254761303    1.2369156160
C       -1.2614581632    1.0054766947    2.0310011812
C       -1.3517582298    1.5299380739    0.5968648517
O       -1.4210541178    0.5205367008   -0.3851904801
P       -2.6017815215   -0.6848834764   -0.0988472802
O       -2.6544396344   -1.3092695606   -1.6039855406
O       -1.9425707965   -1.6979073003    0.8046736775
O       -3.8550471178    0.0405467627    0.2830435265
H        1.1980738134    1.9966997903    2.3624343777
H        0.5321294156    1.5867621037    3.9677358320
H        1.9020165159    0.6554449915    3.3038420720
H       -1.0312556903   -1.5342636317    2.8348778199
H        0.5318377971   -1.3593005483    3.7199002287
H       -0.8884849235   -0.3954592145    4.2225760065
H        0.0309702515   -1.1445055026    0.7954571775
H        1.0000692421    0.3351676382    0.5110801793
H        1.6133901248   -0.9124540123    1.6371640340
H       -2.0968453915    0.3341702157    2.2133067627
H       -1.3257241019    1.8408057460    2.7325404815
H       -2.2586191259    2.1499287475    0.5835631816
H       -0.4987119514    2.1744548114    0.3497094282
H       -3.1386589047   -0.7052707131   -2.1914476041
25   
torsion grid (-60,)
C        0.3909175322    1.8562436947    1.0213650293
N        0.0168938614    0.6258281020    1.7886286426
C        0.9262221606    0.4580009224    2.9801990226
C        0.2143306440   -0.5783852990    0.8887767883
C       -1.4217090732    0.7916008113    2.3241407915
C       -2.5451623475    0.1779059112    1.4866017146
O       -2.5153133025   -1.2306495549    1.4211776115
P       -2.3585468807   -2.0215485788    2.9335467700
O       -2.8375391954   -3.5028512606    2.4459563634
O       -0.8798692217   -2.0826798046    3.2267330965
O       -3.3264193251   -1.3436309695    3.8531697927
H       -0.3172749732    1.9894030616    0.2022234826
H        0.3569319077    2.7211966120    1.6849965186
H        1.3983588227    1.7383972093    0.6200740549
H        0.6365602814   -0.4742902031    3.4714368426
H        1.9594445338    0.4193744395    2.6296065324
H        0.7892514964    1.3117168855    3.6462093438
H       -0.0200996209   -1.4728554111    1.4665638384
H       -0.4435571745   -0.4925417516    0.0268685136
H        1.2589578395   -0.5653993837    0.5705971399
H       -1.4428521051    0.3497477033    3.3173019283
H       -1.5824173773    1.8681570081    2.4192186877
H       -3.4706169356    0.5260539248    1.9651022101
H       -2.5335341550    0.5576231062    0.4571089006
H       -3.7433713312   -3.4617180689    2.0968800646
25   
torsion grid (-45,)
C       -0.0467888134    1.8360861133    0.7654869723
N        0.0398134683    0.6798833963    1.7132312339
C        1.2257210778    0.8453788672    2.6308497107
C        0.2574643179   -0.5854647603    0.9070709459
C       -1.2278213036    0.6627590425    2.5944174339
C       -2.3678669255   -0.2541068931    2.1478241252
O       -2.0627686805   -1.6300144096    2.2149010946
P       -1.3688277133   -2.1471763132    3.6968292778
O       -1.6582009663   -3.7413534954    3.4964982951
O        0.1181239966   -1.9169267842    3.5792924580
O       -2.1802723377   -1.5021236251    4.7768054457
H       -0.9454308718    1.7260559617    0.1566715381
H       -0.0951035247    2.7664725804    1.3327268573
H        0.8340448284    1.8415843665    0.1221121229
H        1.2635687728   -0.0447935898    3.2639942831
H        2.1277531620    0.9409646231    2.0232443419
H        1.0803607031    1.7467747867    3.2287296529
H        0.3646400216   -1.4161282426    1.6054803137
H       -0.5949926258   -0.7415032354    0.2496782426
H        1.1651752643   -0.4324415591    0.3195012140
H       -0.9163496578    0.3712244751    3.5945611391
H       -1.5815598152    1.6959560539    2.6286763082
H       -3.2017672056   -0.0076684263    2.8187737596
H       -2.6837092655   -0.0347327450    1.1201446392
H       -2.5645314151   -3.8814619069    3.1765373591
25   
torsion grid (-30,)
C       -0.2939223799    1.8397261863    0.7979715975
N        0.0333708274    0.6849494696    1.6936033223
C        1.2809114849    0.9795918475    2.4894426033
C        0.3173221438   -0.5269269270    0.8284929205
C       -1.1224013736    0.4922865375    2.6992658942
C       -2.1760583652   -0.5608300403    2.3519160768
O       -1.6916511117   -1.8864739951    2.3546471751
P       -0.7719751544   -2.3214152676    3.7393530812
O       -0.9216774070   -3.9373540062    3.5485799709
O        0.6554180998   -1.9228142815    3.4497587615
O       -1.5061419341   -1.7648159666    4.9187903182
H       -1.2323818241    1.6307104599    0.2822117084
H       -0.3942102909    2.7455101261    1.3972912244
H        0.5059274336    1.9674859561    0.0674129476
H        1.4941993636    0.0887518675    3.0861148696
H        2.0946873783    1.1989147599    1.7954057070
H        1.0904451250    1.8440567798    3.1277673040
H        0.6027308372   -1.3502689712    1.4843280308
H       -0.5756446349   -0.7769483914    0.2597714509
H        1.1295415806   -0.2492634637    0.1534297947
H       -0.6747004900    0.2338207894    3.6559881447
H       -1.6016569398    1.4694842859    2.7944422904
H       -2.9574334488   -0.4321311736    3.1128056518
H       -2.6262519397   -0.3745169246    1.3688735708
H       -1.7631990061   -4.1490111255    3.1131839942
25   
torsion grid (-15,)
C       -0.2657523036    1.8908663867    0.7662036168
N        0.0235110506    0.7401488385    1.6800208477
C        1.2701398905    1.0147636769    2.4850743475
C        0.2857832080   -0.4893870849    0.8338628745
C       -1.1476772840    0.5887967351    2.6753745959
C       -2.2123074791   -0.4583634871    2.3432586874
O       -1.7488218488   -1.7907939576    2.3889419752
P       -0.8402722837   -2.1997210665    3.7903210624
O       -1.0655395316   -3.8146925827    3.6709050791
O        0.5967749843   -1.8568300031    3.4727746882
O       -1.5379116133   -1.5689164269    4.9537915671
H       -1.2029186969    1.6976947819    0.2418959134
H       -0.3514622391    2.8062209488    1.3531089355
H        0.5454842299    1.9904797421    0.0438547535
H        1.4555157862    0.1264593923    3.0951470061
H        2.0956118972    1.2053459857    1.7963716819
H        1.0941310205    1.8919148379    3.1100598169
H        0.5438078278   -1.3108643745    1.5034294923
H       -0.6068775619   -0.7228157248    0.2573881511
H        1.1123162023   -0.2418937117    0.1644844563
H       -0.7177421411    0.3496774816    3.6453839352
H       -1.6156222738    1.5739225979    2.7389570697
H       -3.0004743683   -0.2973301690    3.0908227781
H       -2.6483677056   -0.2926471159    1.3503494196
H       -1.7859337383   -4.0108632676    3.0510519539
25   
torsion grid (0,)
C       -1.1660378870    1.9886436004    1.6128519926
N       -0.2887612466    0.8169193353    1.9293207716
C        0.9723571436    1.2809717621    2.6166785796
C        0.1156521083    0.1552221537    0.6277067553
C       -1.0362749080   -0.1144743708    2.9089255993
C       -1.7438695350   -1.3318041197    2.3102196103
O       -0.8731436850   -2.2967872148    1.7602966699
P        0.4577237119   -2.7348984829    2.7573098014
O        0.7224742175   -4.1893003785    2.0584355429
O        1.5610257098   -1.7629546789    2.4032858748
O       -0.0492060733   -2.8342962296    4.1604566478
H       -2.0961773374    1.6243294766    1.1739144368
H       -1.3797769709    2.5385910925    2.5302105983
H       -0.6551895018    2.6402766618    0.9027389961
H        1.5894270540    0.3928949252    2.7794908730
H        1.4755076323    2.0040303570    1.9716155530
H        0.6995006498    1.7502745740    3.5633781914
H        0.7928499574   -0.6665978874    0.8644001147
H       -0.7758369085   -0.2073519914    0.1200860392
H        0.6075679167    0.9201021632    0.0232087033
H       -0.3109456913   -0.4623544599    3.6410473524
H       -1.7682432055    0.5142579701    3.4210935900
H       -2.3144849880   -1.7577101154    3.1463047032
H       -2.4560390173   -1.0431720761    1.5273846440
H        0.0866109084   -4.3451804978    1.3424390630
25   
torsion grid (15,)
C       -1.1804359120    1.6859664337    1.6654781117
N       -0.2225676183    0.5602768795    1.9061642274
C        1.0185470115    1.0713140783    2.5967114999
C        0.1989888102   -0.0057976588    0.5657704889
C       -0.8887758359   -0.4684557576    2.8468144720
C       -1.5146097189   -1.7047009667    2.1974702542
O       -0.5853321612   -2.5799349102    1.5963741199
P        0.7849165132   -2.9669934838    2.5590512421
O        1.1273052556   -4.3867967743    1.8252355266
O        1.8081660004   -1.9076382776    2.2096476478
O        0.3235916533   -3.1495194580    3.9682733014
H       -2.0909968450    1.2845458669    1.2179083539
H       -1.4160508228    2.1694687232    2.6143561785
H       -0.7248279333    2.4082140449    0.9867476629
H        1.6948812490    0.2185832858    2.7042041128
H        1.4615499925    1.8570985619    1.9815776959
H        0.7335600389    1.4739828151    3.5701455130
H        0.9328354825   -0.7918519332    0.7498313625
H       -0.6766817095   -0.4001652261    0.0542210730
H        0.6280105704    0.8196055949   -0.0061471091
H       -0.1312022550   -0.7968376427    3.5549074514
H       -1.6578296877    0.0803431291    3.3951775189
H       -2.0444665431   -2.2077630745    3.0174673282
H       -2.2548757410   -1.4320323737    1.4353078674
H        0.6568150996   -4.4622807187    0.9799871456
25   
torsion grid (30,)
C       -1.2368207572    1.3838963371    1.7751539890
N       -0.1841998867    0.3308515368    1.9356823202
C        1.0285331715    0.9082536023    2.6245985495
C        0.2470708607   -0.1304443195    0.5590035971
C       -0.7401423581   -0.7961213176    2.8351928588
C       -1.2608965814   -2.0548505014    2.1373216951
O       -0.2677065619   -2.8130187460    1.4828239431
P        1.1476987353   -3.1185932137    2.4055474653
O        1.5968811565   -4.4882703517    1.6379445181
O        2.0653870538   -1.9640312757    2.0606661990
O        0.7411530054   -3.3877953790    3.8167184719
H       -2.1241662265    0.9305165727    1.3305502600
H       -1.4837297378    1.8001572810    2.7526250779
H       -0.8609879838    2.1730315070    1.1225216141
H        1.7759038930    0.1110097645    2.6712503959
H        1.3882221826    1.7590662703    2.0424515302
H        0.7371791329    1.2351341490    3.6241744357
H        1.0471592110   -0.8610837281    0.6866089154
H       -0.6067082317   -0.5695620012    0.0467725172
H        0.5925796237    0.7550326197    0.0214240768
H        0.0544559472   -1.0854843689    3.5194294924
H       -1.5476702168   -0.3454297541    3.4166056132
H       -1.7274527700   -2.6404793705    2.9409312257
H       -2.0374671470   -1.8177337612    1.3998082243
H        1.3124304687   -4.4788350680    0.7099542857
25   
torsion grid (45,)
C       -1.2350805597    1.5103987210    1.7876814251
N       -0.2005645573    0.4348052293    1.9120465255
C        1.0308940828    0.9742769849    2.5983066641
C        0.2054768721   -0.0038265256    0.5204838628
C       -0.7669982198   -0.7018013772    2.7932163319
C       -1.3082415239   -1.9401676743    2.0745691973
O       -0.3302246929   -2.6967674123    1.3965855290
P        1.0854476045   -3.0429117488    2.3006237258
O        1.5133734699   -4.4159839300    1.5303103103
O        2.0204172813   -1.9030418060    1.9498205440
O        0.6867635668   -3.3231354859    3.7110891948
H       -2.1356307229    1.0835351540    1.3433809787
H       -1.4632061817    1.9086604811    2.7771490607
H       -0.8520163320    2.3072238183    1.1487209423
H        1.7641752630    0.1629234153    2.6178368798
H        1.3994391095    1.8311193774    2.0307050995
H        0.7578506406    1.2840216869    3.6084472522
H        0.9939797750   -0.7508430007    0.6225316330
H       -0.6620386561   -0.4171889721    0.0099079765
H        0.5597835620    0.8869790427   -0.0023848430
H        0.0275201763   -1.0153552078    3.4668424737
H       -1.5646298323   -0.2515178615    3.3884004268
H       -1.7757726681   -2.5356122618    2.8704265965
H       -2.0878759219   -1.6788591167    1.3485099901
H        1.4430963779   -4.3130940564    0.5673309383
25   
torsion grid (60,)
C       -1.4824995537    1.3474008428    1.8118896416
N       -0.1724867517    0.6246126707    1.7476630289
C        0.9285289764    1.4933801098    2.3056508297
C        0.1531318965    0.3499366751    0.2942403605
C       -0.2596002233   -0.6438031533    2.6272452603
C       -0.4958210783   -1.9763719623    1.9119638409
O        0.5645527173   -2.3895276664    1.0798249444
P        2.1237832500   -2.3119932617    1.7843407725
O        2.8452566111   -3.4831948676    0.9092832222
O        2.6331258602   -0.9449746846    1.3716879075
O        2.0058834946   -2.7156119376    3.2158625685
H       -2.2702952842    0.6809928449    1.4570773027
H       -1.6827811456    1.6417249931    2.8428844699
H       -1.4370924886    2.2336345010    1.1774773407
H        1.8624424852    0.9358235905    2.1901167665
H        0.9523129408    2.4297065000    1.7444638707
H        0.7146097474    1.6924488638    3.3570541485
H        1.1324598362   -0.1289763566    0.2559134442
H       -0.6146208702   -0.2958641636   -0.1271680065
H        0.1558362334    1.3142664695   -0.2180925119
H        0.6714778546   -0.7149978385    3.1853506523
H       -1.0718302099   -0.4637344953    3.3350422267
H       -0.6554161433   -2.6978712824    2.7246928979
H       -1.4064531215   -1.9518541599    1.3008341738
H        2.8254239367   -3.2668021198   -0.0372599493
25   
torsion grid (75,)
C       -1.1035589973    1.3859583041    1.3892132969
N        0.0065607922    0.4295731746    1.6982722453
C        1.1805166548    1.1693955852    2.2916334550
C        0.4712326805   -0.2015568413    0.4023075152
C       -0.4891181276   -0.5852650477    2.7540527998
C       -0.9148990555   -1.9661647593    2.2495861255
O        0.1327726506   -2.7391800593    1.7093183947
P        1.5479345775   -2.8260455159    2.6651738447
O        2.1194787841   -4.2604315946    2.1435435148
O        2.4143224505   -1.6998916649    2.1329081589
O        1.1251068810   -2.9026116738    4.0939153072
H       -1.9600176867    0.8224619302    1.0156577154
H       -1.3810611128    1.9231808761    2.2969872604
H       -0.7691741728    2.0935204038    0.6292749858
H        1.9728072590    0.4324624536    2.4513643140
H        1.4945766461    1.9454503266    1.5906893504
H        0.8661977723    1.6212661512    3.2339328256
H        1.3135038820   -0.8553872660    0.6319048936
H       -0.3507792273   -0.7640627463   -0.0356773757
H        0.7640121288    0.6149428473   -0.2611321060
H        0.3132112314   -0.7170480943    3.4766678309
H       -1.3313922594   -0.1068649421    3.2588888338
H       -1.3464151577   -2.4583050108    3.1316508302
H       -1.7001779618   -1.8938585910    1.4870058865
H        2.5047840938   -4.1624984183    1.2575163548
25   
torsion grid (90,)
C       -1.2543103657    1.4776937227    1.3151068541
N       -0.0430060892    0.6457944855    1.6037734423
C        1.0687643633    1.5135937280    2.1402360987
C        0.4401459439    0.0349222305    0.3045461423
C       -0.3975917363   -0.3883101071    2.6970217000
C       -0.7068385635   -1.8137525409    2.2341809721
O        0.3892431358   -2.4913284546    1.6625791175
P        1.8371094961   -2.4286034196    2.5633962544
O        2.5352805369   -3.7964164092    2.0160534712
O        2.5789459688   -1.2296621501    1.9998999054
O        1.4652135792   -2.5335628223    4.0050304323
H       -2.0607888434    0.8219857591    0.9831952068
H       -1.5549636207    2.0052650992    2.2211693491
H       -1.0190297745    2.1975183140    0.5299416412
H        1.9365456631    0.8641743071    2.2864478101
H        1.2792577798    2.3007186438    1.4133476068
H        0.7418743166    1.9535449009    3.0838857102
H        1.3521291839   -0.5244169316    0.5161142642
H       -0.3335708805   -0.6188685438   -0.0924828443
H        0.6248925460    0.8615845023   -0.3847311440
H        0.4410779755   -0.4267806206    3.3886911635
H       -1.2619032172    0.0188452436    3.2265401469
H       -1.0518745800   -2.3279792623    3.1411885990
H       -1.5249751758   -1.8334318068    1.5036429995
H        3.0715018390   -3.5892208507    1.2334666781
25   
torsion grid (105,)
C       -1.2825605906    1.5009827494    1.2872968694
N       -0.0581879517    0.6906891172    1.5822420376
C        1.0411203705    1.5800772121    2.1082906496
C        0.4325145117    0.0746125177    0.2879794707
C       -0.3950249277   -0.3369355482    2.6868524632
C       -0.6984930160   -1.7674666958    2.2369386002
O        0.3978093049   -2.4389222945    1.6580275461
P        1.8477993746   -2.3632960583    2.5471612518
O        2.5547213490   -3.7143952157    1.9670645487
O        2.5848879455   -1.1539668225    1.9975981062
O        1.4792018217   -2.4791021973    3.9896935710
H       -2.0797069219    0.8294945625    0.9646056515
H       -1.5891744325    2.0340040798    2.1881593193
H       -1.0600014641    2.2154660485    0.4936031284
H        1.9185783320    0.9451059089    2.2596468765
H        1.2390869313    2.3630934745    1.3734920225
H        0.7093855322    2.0243964681    3.0482143340
H        1.3535880058   -0.4683194649    0.5025183835
H       -0.3307441403   -0.5958564109   -0.1011523748
H        0.6026618772    0.8976040141   -0.4094185898
H        0.4509900475   -0.3643448591    3.3700415095
H       -1.2565321176    0.0690779284    3.2218526960
H       -1.0298301756   -2.2792942483    3.1502251465
H       -1.5230505571   -1.7983478966    1.5140972579
H        3.2525591769   -3.4532290749    1.3445893746
25   
torsion grid (120,)
C       -1.5829881936    1.5630292120    1.0186779059
N       -0.2591808739    0.9705465844    1.3917032776
C        0.6712432245    2.0470243945    1.8932157246
C        0.3649866944    0.3703718436    0.1480836854
C       -0.4713611591   -0.0355386844    2.5458406845
C       -0.5432255231   -1.5172163719    2.1718588828
O        0.6580547932   -2.0424130041    1.6524645585
P        2.0498026438   -1.7017263768    2.5641819368
O        2.9590450485   -2.9545646180    2.0437305847
O        2.6195207221   -0.4175960448    1.9852750177
O        1.6598333290   -1.8035984759    4.0033667086
H       -2.2553464944    0.7591677661    0.7150412528
H       -1.9991092515    2.0890590309    1.8788015928
H       -1.4460752663    2.2600187283    0.1907860008
H        1.6300856188    1.5651535939    2.1041585830
H        0.7718784067    2.8106746447    1.1193115139
H        0.2427822966    2.4842080617    2.7966806891
H        1.3516985109   -0.0089115370    0.4157956197
H       -0.2708537381   -0.4317384895   -0.2203240869
H        0.4284396964    1.1715057728   -0.5913670242
H        0.3484935986    0.1017335468    3.2474883179
H       -1.3996527712    0.2635658602    3.0378959074
H       -0.8182188630   -2.0251934114    3.1056408923
H       -1.3323676306   -1.7116660034    1.4352575823
H        3.7551905276   -2.5953433699    1.6198965230
25   
torsion grid (135,)
C       -1.3347640852    1.5620046143    1.2246651372
N       -0.0890274639    0.7875610266    1.5263789676
C        0.9875913786    1.7107148594    2.0408366479
C        0.4159228377    0.1708331561    0.2371907750
C       -0.3969492145   -0.2346597264    2.6439338149
C       -0.6787662060   -1.6742486735    2.2101712099
O        0.4238951294   -2.3270656721    1.6206742365
P        1.8740078368   -2.2155258260    2.4899523292
O        2.5727972177   -3.5498674470    1.8540840326
O        2.5958552318   -0.9864831422    1.9642512026
O        1.5252018258   -2.3381036117    3.9393903270
H       -2.1145772620    0.8661633452    0.9113739909
H       -1.6536736628    2.0973368670    2.1198763498
H       -1.1324887867    2.2726785163    0.4222109740
H        1.8808512959    1.0996622328    2.1984717700
H        1.1649803571    2.4899476925    1.2968462568
H        0.6455411722    2.1572542553    2.9760384457
H        1.3531264487   -0.3432228741    0.4530363397
H       -0.3284021702   -0.5257929263   -0.1423063923
H        0.5602471155    0.9910248945   -0.4692482908
H        0.4559522922   -0.2403322303    3.3191323517
H       -1.2607672426    0.1610300194    3.1830358271
H       -0.9870787757   -2.1862604594    3.1311567789
H       -1.5104434124   -1.7278958739    1.4972083680
H        3.4908631927   -3.3340572609    1.6237745913
25   
torsion grid (150,)
C       -1.4529772167    1.7554777869    1.0626212910
N       -0.1908420627    1.0306520698    1.4150655442
C        0.8423303006    2.0019443407    1.9301768791
C        0.3657235887    0.3973527804    0.1551830276
C       -0.4935190048    0.0290088535    2.5523459737
C       -0.7209951603   -1.4295336822    2.1510786123
O        0.4141235686   -2.0619268846    1.6023473329
P        1.8363707097   -1.8816219004    2.4995635885
O        2.5717015654   -3.2128086646    1.8949602857
O        2.5303417030   -0.6384958071    1.9712284818
O        1.4674584245   -1.9821348503    3.9469522205
H       -2.2019770226    1.0263793319    0.7497316031
H       -1.8111118494    2.3035708409    1.9349939265
H       -1.2538103944    2.4509141976    0.2461810564
H        1.7502851534    1.4244223837    2.1259310189
H        1.0129549972    2.7667259442    1.1698022779
H        0.4626871202    2.4614173027    2.8443960817
H        1.3138967748   -0.0791714207    0.4065725948
H       -0.3457532391   -0.3335737782   -0.2227921239
H        0.5000225929    1.2032216997   -0.5694547288
H        0.3429087500    0.0680007682    3.2467801192
H       -1.3819907142    0.4109705298    3.0604251583
H       -1.0334990300   -1.9273217737    3.0784319609
H       -1.5342541278   -1.5280797170    1.4220160447
H        3.5316675496   -3.0682153218    1.8931399992
25   
torsion grid (165,)
C       -1.5409274304    1.8475355922    0.9624385153
N       -0.2967271040    1.1389520841    1.4010156973
C        0.7072335856    2.1294022438    1.9365724877
C        0.3241168053    0.4678043342    0.1914944970
C       -0.6541537610    0.1733810542    2.5528657244
C       -0.8748591424   -1.2946339891    2.1832683451
O        0.2792413304   -1.9499619210    1.7060501763
P        1.6549562958   -1.7552324162    2.6674346559
O        2.4016755911   -3.1022631025    2.1099148283
O        2.3670819586   -0.5153609706    2.1577970803
O        1.2296520886   -1.8361874234    4.1013735570
H       -2.2722804270    1.1060489001    0.6372204800
H       -1.9429166716    2.4232381241    1.7971229619
H       -1.3024866196    2.5159690322    0.1340682502
H        1.6045317797    1.5608496851    2.1965750634
H        0.9151948830    2.8702200776    1.1619315470
H        0.2810800190    2.6164729937    2.8153443373
H        1.2571346272   -0.0007662636    0.5068431372
H       -0.3675811806   -0.2745346583   -0.2006473886
H        0.4968514597    1.2515706098   -0.5490736780
H        0.1527176812    0.2288320734    3.2801874172
H       -1.5607949294    0.5753576002    3.0110990670
H       -1.2345147256   -1.7641364773    3.1083382583
H       -1.6539657438   -1.4082888251    1.4199627864
H        3.3398172874   -3.0774854363    2.3582531348
25   
torsion grid (180,)
C       -1.1622145462    1.9646497086    0.7964678821
N       -0.1554465418    1.0519417017    1.4256018213
C        0.9509981165    1.8551685021    2.0628441387
C        0.4666552582    0.2006469787    0.3360299809
C       -0.8472994021    0.2457126705    2.5469756674
C       -1.3224123487   -1.1647723030    2.1925018556
O       -0.2825083390   -2.0691477059    1.8948339084
P        0.9649695539   -2.1120134648    3.0334787879
O        1.4909970644   -3.5999417655    2.5919676835
O        1.9581604034   -1.0454060256    2.6118167837
O        0.3590384858   -2.0675829386    4.4030965897
H       -1.9811962683    1.3641592692    0.3975808437
H       -1.5425721516    2.6573788501    1.5482609255
H       -0.6878718205    2.5219583293   -0.0123929613
H        1.6712398946    1.1371092476    2.4644289270
H        1.4044427298    2.4920998734    1.3007345180
H        0.5225991078    2.4692494943    2.8569056754
H        1.2335441650   -0.4251957234    0.7940194580
H       -0.3055013999   -0.4107299103   -0.1257348408
H        0.8920238122    0.8893547737   -0.3970189027
H       -0.1432253856    0.1789772374    3.3731265552
H       -1.7009998757    0.8481662863    2.8662940273
H       -1.8881523367   -1.4983453734    3.0726050815
H       -2.0052005678   -1.1579049794    1.3343732976
H        2.2497307566   -3.8539079765    3.1416111204
