13   
torsion grid (-165,)
C       -1.5034033219   -1.4759691514    1.7607128007
C       -1.6727802617   -1.3676672466    0.4081730765
C       -0.6908347160   -3.4550003825    1.1683217262
C       -0.0129900810   -4.7920749334    1.2767569444
N       -0.9448802847   -2.6659589792    2.1763363175
N       -0.5529982361   -5.7255732889    0.2828511954
S       -1.1286141973   -2.8076981804   -0.4067462363
Br      -2.4312148875    0.0875681540   -0.5319870943
H       -1.7780783491   -0.7198061718    2.4872398194
H        1.0537591354   -4.6583925340    1.0591318096
H       -0.0846967636   -5.1064203129    2.3281009054
H       -1.4904105854   -6.0220608916    0.5481083487
H        0.0268106539   -6.5598492758    0.2299695944
13   
torsion grid (-150,)
C       -1.1818702539   -1.3174289420    1.7486577586
C       -1.4354422353   -1.2546337187    0.4064117653
C       -0.5989316850   -3.3878712318    1.2049237536
C       -0.0697432137   -4.7899485748    1.3368817912
N       -0.7110105371   -2.5367513138    2.1871512871
N       -0.5416075906   -5.6186011964    0.2222102935
S       -1.0803277337   -2.7737767236   -0.3699616231
Br      -2.1112101356    0.2261531303   -0.5574050785
H       -1.3307029803   -0.5058783553    2.4518701960
H        1.0249123811   -4.7521477805    1.2898417992
H       -0.3370718352   -5.1533856350    2.3394447360
H       -1.5115068735   -5.8920855146    0.3676501542
H        0.0074360664   -6.4720994786    0.1567940886
13   
torsion grid (-135,)
C       -1.1336589921   -1.2952287846    1.7027020224
C       -1.5193370573   -1.2965686915    0.3906893872
C       -0.6125679342   -3.3930886888    1.2061332531
C       -0.1243786600   -4.8090889823    1.3707188205
N       -0.6286935593   -2.4962117112    2.1528399869
N       -0.4768967448   -5.6095514521    0.1918837122
S       -1.2380709222   -2.8517686951   -0.3437713539
Br      -2.2675529114    0.1454102313   -0.5789183443
H       -1.2047862097   -0.4474635477    2.3747447496
H        0.9663231256   -4.7896661602    1.4679754783
H       -0.5296474615   -5.1975883966    2.3156330516
H       -1.4290334775   -5.9605620377    0.2682197668
H        0.1365690585   -6.4157880002    0.1100170437
13   
torsion grid (-120,)
C       -1.0304293978   -1.2628987827    1.3460377956
C       -1.5317760768   -1.4142577023    0.0827247577
C       -0.7341600478   -3.4502000851    1.1325328874
C       -0.3018793382   -4.8592447934    1.4503087801
N       -0.5724834838   -2.4269804176    1.9248031975
N       -0.5604326190   -5.7540119284    0.3175664598
S       -1.4583610034   -3.0801518307   -0.4239677780
Br      -2.2455333076   -0.0614598328   -1.0308765632
H       -0.9744539557   -0.3257555432    1.8883249788
H        0.7524260763   -4.8231724045    1.7607326946
H       -0.8597898937   -5.1958919917    2.3303303258
H       -0.7337529262   -6.7021880125    0.6386250771
H        0.2423553958   -5.7881474028   -0.3060398698
13   
torsion grid (-105,)
C       -0.9442470586   -1.2617576969    1.2586288550
C       -1.5683585427   -1.4481087218    0.0562145354
C       -0.7312089226   -3.4646710045    1.1131784339
C       -0.3601637029   -4.8787312502    1.4741124020
N       -0.4679415886   -2.4159977320    1.8425658002
N       -0.4975442229   -5.7592322980    0.3102792899
S       -1.5839749778   -3.1334538862   -0.3870365714
Br      -2.3299889734   -0.1167562964   -1.0512161952
H       -0.8044949340   -0.3050445872    1.7490638328
H        0.6435032409   -4.8558963926    1.9229536694
H       -1.0418721014   -5.2225783664    2.2602744849
H       -0.5754971628   -6.7295340626    0.6032386043
H        0.3211104857   -5.6887006238   -0.2904075240
13   
torsion grid (-90,)
C       -0.8513508661   -1.2509594529    1.2724593769
C       -1.6023417214   -1.4191803956    0.1421613667
C       -0.7383281156   -3.4619576823    1.1272021554
C       -0.4281409701   -4.8884523797    1.4881903176
N       -0.3653782029   -2.4200568979    1.8181509585
N       -0.4378216549   -5.7308437093    0.2869632029
S       -1.7216464495   -3.1041545117   -0.2852558569
Br      -2.4079572791   -0.0637723754   -0.9026908267
H       -0.6211235680   -0.2974088494    1.7339035261
H        0.5106335132   -4.8883739206    2.0603184529
H       -1.2146982711   -5.2543490357    2.1588703162
H       -0.4575283247   -6.7147072799    0.5443438699
H        0.4066426894   -5.5772394027   -0.2609945969
13   
torsion grid (-75,)
C       -0.8017334611   -1.1647414310    1.6112896406
C        0.2027592835   -0.9280207349    0.7142514574
C       -0.0490789989   -3.2436160906    1.4044703835
C        0.0239353447   -4.7376019132    1.5498698088
N       -0.9325646828   -2.4833312597    1.9921205951
N        1.4257219422   -5.1759023130    1.6120747402
S        1.0479854537   -2.3990214213    0.3207857874
Br       0.7101061347    0.7422321857   -0.0129731980
H       -1.4613430366   -0.4100707955    2.0240809413
H       -0.6001567430   -5.0093066413    2.4126346715
H       -0.4156687332   -5.1996450981    0.6580458937
H        1.4772221718   -6.1904669434    1.5488572408
H        1.8371553228   -4.9076178019    2.5044860066
13   
torsion grid (-60,)
C       -0.7600961093   -1.1706056937    1.6383952741
C        0.1082029608   -0.9329845072    0.6087847134
C       -0.0626238387   -3.2553229204    1.3133886929
C        0.0311598062   -4.7469625394    1.4697937016
N       -0.8487778067   -2.4908645356    2.0231246408
N        1.4260098453   -5.1495804205    1.7157506782
S        0.8733642513   -2.4074030994    0.0904517499
Br       0.5155278897    0.7376940771   -0.1765473016
H       -1.3488146523   -0.4141626452    2.1444539653
H       -0.6864591698   -5.0273587286    2.2532108667
H       -0.2756803803   -5.2269106522    0.5336638729
H        1.4920926287   -6.1654726136    1.7417659299
H        1.7285013534   -4.8063461748    2.6261775096
13   
torsion grid (-45,)
C       -1.0496830220   -1.7787182612    0.3242553223
C       -0.0287085529   -1.3842524607    1.1444778693
C       -0.1387135449   -3.7797123274    0.6716195151
C        0.0023389540   -5.2831524200    0.6685658872
N       -1.1011278503   -3.1316075935    0.0713781396
N       -0.5557230717   -5.9634688604    1.8452363467
S        0.9321368483   -2.7536660264    1.6259325344
Br       0.3692457188    0.3724260643    1.7142090774
H       -1.7830867777   -1.1131074267   -0.1165447175
H       -0.5189980372   -5.6463826938   -0.2211104774
H        1.0544414286   -5.5672050771    0.5666070432
H       -1.5384332610   -5.7125387422    1.9453481231
H       -0.0862241586   -5.6474052903    2.6925630771
13   
torsion grid (-30,)
C       -1.1160166200   -1.8021157172    0.4197194850
C       -0.0026286091   -1.3645212345    1.0843591211
C       -0.1165686132   -3.7721312589    0.6845312287
C        0.0552324237   -5.2725167155    0.6906525884
N       -1.1672068930   -3.1605960557    0.2048726409
N       -0.6242033593   -5.9606385385    1.7974147078
S        1.0462995813   -2.7012976685    1.4604130662
Br       0.4284918699    0.4151578024    1.5494414341
H       -1.9178398208   -1.1632476156    0.0672099388
H       -0.3507738472   -5.6528707888   -0.2507421781
H        1.1176469371   -5.5327339968    0.7173119875
H       -1.6160123827   -5.7265106106    1.7756252483
H       -0.2663709542   -5.6225020078    2.6899009392
13   
torsion grid (-15,)
C       -1.1361519365   -1.8131954389    0.5254537364
C        0.0501102633   -1.3479164443    1.0258117970
C       -0.0915372168   -3.7669827532    0.7226642403
C        0.0981234224   -5.2669385127    0.7216202717
N       -1.2009814532   -3.1775095600    0.3619317935
N       -0.6932934550   -5.9807566929    1.7316855591
S        1.1494494896   -2.6667214177    1.3078381880
Br       0.5197161605    0.4481874680    1.3768223949
H       -1.9833479561   -1.1905186227    0.2610114173
H       -0.1893019771   -5.6423820259   -0.2651087310
H        1.1544524905   -5.5122930357    0.8664586654
H       -1.6776250997   -5.7504008290    1.6005100802
H       -0.4430150709   -5.6486718930    2.6624611498
13   
torsion grid (0,)
C       -1.1979508991   -1.8283601028    0.6323860894
C        0.0313948727   -1.3193183579    0.9534455963
C       -0.0892738451   -3.7515717064    0.7717206883
C        0.1418052555   -5.2480301805    0.7619423148
N       -1.2499697796   -3.1996625962    0.5351725372
N       -0.7363442684   -6.0072092631    1.6568683014
S        1.1882078586   -2.6045259523    1.1483456516
Br       0.4971367192    0.4985034062    1.1743688330
H       -2.0879635503   -1.2343317364    0.4580743524
H       -0.0166112256   -5.6103347504   -0.2594391252
H        1.1835435930   -5.4655100549    1.0163571177
H       -1.7047544386   -5.7863771088    1.4274512044
H       -0.5953871251   -5.6954701971    2.6171454930
13   
torsion grid (15,)
C       -1.2169598450   -1.8228481137    0.7388356819
C        0.0359410681   -1.2913277888    0.8773165330
C       -0.0754960680   -3.7303487322    0.8206594205
C        0.1774820284   -5.2251451850    0.8059754293
N       -1.2632909372   -3.1984426321    0.7098502704
N       -0.7835539105   -6.0170551659    1.5732173740
S        1.2250914671   -2.5584715947    0.9825417022
Br       0.5027272918    0.5376890373    0.9651086737
H       -2.1301266287   -1.2443667935    0.6565288255
H        0.1480187609   -5.5659798505   -0.2355984274
H        1.1885800418   -5.4328542070    1.1698712997
H       -1.7232057060   -5.7922802202    1.2481199144
H       -0.7526912693   -5.7304516722    2.5509344423
13   
torsion grid (30,)
C       -1.2078799422   -1.8351481529    0.8557385434
C        0.0492334249   -1.3003091406    0.8098270204
C       -0.0568838276   -3.7398413848    0.8676191107
C        0.2047749645   -5.2345428653    0.8566577645
N       -1.2507473699   -3.2122285154    0.8887077014
N       -0.8307672039   -6.0441058176    1.4915383990
S        1.2497984105   -2.5625971791    0.8132209589
Br       0.5163040837    0.5303374006    0.7651445202
H       -2.1270513184   -1.2606028837    0.8698231986
H        0.3052147954   -5.5578039006   -0.1868135547
H        1.1687190279   -5.4420282700    1.3326986018
H       -1.7297410359   -5.8122795793    1.0706750653
H       -0.9130393712   -5.7746666099    2.4711508324
13   
torsion grid (45,)
C       -1.2205040078   -1.8014380909    0.9717410217
C        0.0115179326   -1.2582732658    0.7415362998
C       -0.0547302300   -3.6961807711    0.8898240239
C        0.2300645963   -5.1876551524    0.8968986299
N       -1.2411561360   -3.1783078636    1.0529788339
N       -0.8573508523   -6.0187854886    1.3986097714
S        1.2188760298   -2.5094646249    0.6206554155
Br       0.4454176752    0.5735602849    0.5739897063
H       -2.1372294019   -1.2351962891    1.0902027019
H        0.4676743263   -5.5020897045   -0.1267804184
H        1.1314157960   -5.3811333373    1.4889363187
H       -1.7032895216   -5.8084963735    0.8703720271
H       -1.0694137598   -5.7470553818    2.3578302025
13   
torsion grid (60,)
C       -1.2010827621   -1.7750339335    1.1003410755
C       -0.0151800221   -1.2418225037    0.6827350222
C       -0.0565158389   -3.6747927867    0.9059291440
C        0.2416109737   -5.1633636224    0.9477754314
N       -1.2082636305   -3.1495375162    1.2212663794
N       -0.8876126055   -6.0063035249    1.3190783717
S        1.1634747763   -2.4992159306    0.4212003251
Br       0.3860953922    0.5829417501    0.3975962913
H       -2.0932416543   -1.2037560241    1.3299058732
H        0.6137340314   -5.4806303841   -0.0333019874
H        1.0616455542   -5.3403870709    1.6537614302
H       -1.6545908762   -5.8396260111    0.6688363433
H       -1.2415988690   -5.7054264907    2.2262573172
13   
torsion grid (75,)
C       -1.1660104013   -1.7437551675    1.2182144661
C       -0.0496292705   -1.2300799276    0.6212178516
C       -0.0610333172   -3.6539144966    0.9267706259
C        0.2478637114   -5.1384550693    1.0033104539
N       -1.1571509886   -3.1129098146    1.3834336230
N       -0.9085858752   -5.9942248973    1.2432575194
S        1.0769509247   -2.5021583673    0.2342503002
Br       0.3057352517    0.5818222955    0.2180034338
H       -2.0173549233   -1.1605975387    1.5502090311
H        0.7429768214   -5.4554323552    0.0791291564
H        0.9734582013   -5.3004225727    1.8098403701
H       -1.5793487253   -5.8694004484    0.4860490991
H       -1.3890953831   -5.6696629456    2.0814613741
13   
torsion grid (90,)
C       -1.0931408935   -1.7581568208    1.3061850685
C       -0.0574571223   -1.2846708613    0.5494588049
C       -0.0498528069   -3.6924124940    0.9585432580
C        0.2461974076   -5.1769308991    1.0606659657
N       -1.0751202034   -3.1178518187    1.5272062321
N       -0.9346637593   -6.0313508522    1.1595102822
S        0.9973149746   -2.5875973862    0.0769032587
Br       0.2570928589    0.5037625105    0.0261676764
H       -1.8897518590   -1.1492825798    1.7183653354
H        0.8481226430   -5.4926710021    0.2025430166
H        0.8644839983   -5.3430930801    1.9511527928
H       -1.5086938727   -5.9083001798    0.3262372590
H       -1.5085608046   -5.7054279547    1.9363389005
13   
torsion grid (105,)
C       -1.0384830186   -1.7270703484    1.4024909867
C       -0.1061380870   -1.2875719542    0.5026408564
C       -0.0405347844   -3.6757937150    1.0065460324
C        0.2481461802   -5.1597371981    1.1138871609
N       -0.9890914911   -3.0753189371    1.6747585501
N       -0.9365765770   -6.0179042421    1.0618610684
S        0.8842158548   -2.6110603553   -0.0426990999
Br       0.1379187203    0.4779573864   -0.1248103548
H       -1.7773159199   -1.0986529069    1.8868165947
H        0.9433575850   -5.4608619308    0.3242200122
H        0.7577489966   -5.3409919737    2.0671568475
H       -1.4139790548   -5.8808705498    0.1716304411
H       -1.5921125667   -5.7101960134    1.7794320585
13   
torsion grid (120,)
C       -0.9663504014   -1.7146822726    1.4789262149
C       -0.1511695422   -1.3246107237    0.4508182271
C       -0.0262252618   -3.6867822220    1.0589831214
C        0.2394470770   -5.1727273821    1.1711423635
N       -0.8854072247   -3.0478387317    1.8084812421
N       -0.9400168880   -6.0200519301    0.9674062237
S        0.7664842260   -2.6784798260   -0.1429663243
Br       0.0211598912    0.4089992224   -0.2806253351
H       -1.6373365138   -1.0576720865    2.0206992575
H        1.0153442459   -5.4678670902    0.4583851596
H        0.6342778098   -5.3729066276    2.1726313614
H       -1.3188564648   -5.8588262340    0.0348089029
H       -1.6661035943   -5.7312465953    1.6221266050
13   
torsion grid (135,)
C       -0.8573139946   -1.6840944907    1.5249688056
C       -0.1705848685   -1.3627991076    0.3851840911
C       -0.0032119233   -3.6928717018    1.0982302081
C        0.2218087592   -5.1819290311    1.2277035066
N       -0.7548531170   -3.0000333350    1.9127066026
N       -0.9432771229   -6.0061619873    0.8813794098
S        0.6518155139   -2.7616321454   -0.2428026383
Br      -0.0601704469    0.3296392547   -0.4474409020
H       -1.4450964384   -0.9865170331    2.1108619214
H        1.0670635514   -5.4900137033    0.6050556846
H        0.4926561926   -5.3908399563    2.2668706163
H       -1.2161883835   -5.8293794920   -0.0847405220
H       -1.7325005916   -5.7207850584    1.4599471876
13   
torsion grid (150,)
C       -0.7830513743   -1.6568507739    1.6005070082
C       -0.2453217301   -1.3849157171    0.3719551193
C       -0.0055735970   -3.6910734477    1.1426449454
C        0.2016668466   -5.1807245018    1.2762236304
N       -0.6431991102   -2.9607559656    2.0189201754
N       -0.9178669659   -5.9992611120    0.7887114638
S        0.4823589495   -2.8137442932   -0.3047897895
Br      -0.2276827657    0.2758313502   -0.5284669913
H       -1.2849194908   -0.9319419655    2.2313538071
H        1.1111068444   -5.4874310474    0.7508333957
H        0.3457073591   -5.3961526987    2.3384342715
H       -1.0789424707   -5.8165256096   -0.2010234621
H       -1.7693226193   -5.7234937334    1.2765647488
13   
torsion grid (165,)
C       -0.6753379849   -1.6208292026    1.6416229768
C       -0.3058052669   -1.4124212196    0.3415849703
C       -0.0262620583   -3.6966583064    1.1664371509
C        0.1664111382   -5.1856494140    1.3287179164
N       -0.5169117021   -2.9137809504    2.0897904277
N       -0.8781260686   -6.0198424798    0.7175902150
S        0.2810592843   -2.8884106346   -0.3711207867
Br      -0.3760171652    0.2101239366   -0.6234370014
H       -1.0667958938   -0.8578507326    2.3048087108
H        1.1347933258   -5.4929213563    0.9215507091
H        0.1780623425   -5.3849801432    2.4034294629
H       -0.9136020484   -5.8638785296   -0.2887267664
H       -1.7879910381   -5.7472608898    1.0871870362
13   
torsion grid (180,)
C       -1.7486608442   -1.6341900455    1.7782638837
C       -1.8204526924   -1.4398105622    0.4265132274
C       -0.7265909407   -3.4965759754    1.1263276178
C        0.0401691617   -4.7859152761    1.2148771808
N       -1.1235498173   -2.8020436671    2.1587902542
N       -0.5752388944   -5.8198128521    0.3728195850
S       -1.0939438885   -2.7684906081   -0.4313619385
Br      -2.6198486931    0.0174796349   -0.4745127187
H       -2.1421346557   -0.9569338785    2.5275492988
H        1.0563969452   -4.6180418805    0.8383102542
H        0.1339993467   -5.0208514959    2.2850351086
H       -1.4670649216   -6.1080456118    0.7720935254
H        0.0217347577   -6.6439524918    0.3430856478
