18   
torsion grid (-165,)
C        4.4939133927    1.7020465443    1.3084758356
C        5.5869068604    0.8200125774    1.5557642357
C        3.7803889553    1.5920432494    0.1503142632
C        5.9069532323   -0.0895053404    0.5903128159
C        4.0626802530    0.5757405720   -0.8528942628
C        5.2491078473   -1.2679389245   -2.9578736025
C        5.6818964029   -1.2962667595   -1.4932054985
N        5.2373455291   -0.1851371347   -0.6056004704
O        3.3469567984    0.3779489317   -1.8388394565
H        4.2257475493    2.4540973211    2.0470236452
H        6.1626052147    0.8595026331    2.4732397934
H        2.9264926478    2.2253294354   -0.0662015878
H        6.7362257653   -0.7794615690    0.7135356507
H        4.1844056432   -1.4486626206   -3.0794428167
H        5.8138736332   -2.0534050884   -3.4742800687
H        5.4849225319   -0.3114698963   -3.4309137846
H        5.3416332338   -2.2345416010   -1.0377556485
H        6.7747666623   -1.2916187474   -1.4454541187
18   
torsion grid (-150,)
C        4.5339927084    1.7297787745    1.2744836348
C        5.6671617704    0.8940553755    1.4995450680
C        3.7535638882    1.5392876418    0.1699928237
C        5.9672386771   -0.0486711904    0.5585399579
C        4.0076574226    0.4721746122   -0.7836819848
C        5.3613923457   -1.1763875680   -2.9638727417
C        5.5963231244   -1.3586329979   -1.4639750088
N        5.2423793961   -0.2064056346   -0.5975445570
O        3.2252157287    0.1509651776   -1.6836634730
H        4.2851009014    2.5087416945    1.9915622380
H        6.2886775471    0.9934792431    2.3818787291
H        2.8612150457    2.1271181827   -0.0176850071
H        6.8265840017   -0.7034887239    0.6636614765
H        4.3033256005   -1.1633212619   -3.2098006219
H        5.8499447597   -2.0077236963   -3.4846414643
H        5.8114343486   -0.2447852384   -3.3222969446
H        5.0275687975   -2.2283784328   -1.1130735415
H        6.6541888563   -1.5601901469   -1.2794368552
18   
torsion grid (-135,)
C        4.5215399145    1.7294152403    1.2277306853
C        5.7025726530    0.9524001158    1.4092155447
C        3.6797424555    1.4667861358    0.1833216705
C        5.9823861366   -0.0183496008    0.4890632605
C        3.9263183449    0.3840883716   -0.7511413487
C        5.4532518314   -1.1012930355   -2.9740765907
C        5.4947837016   -1.4061010352   -1.4759484793
N        5.1892403890   -0.2499214377   -0.6051463199
O        3.1242461450    0.0028585518   -1.6110044997
H        4.2844391653    2.5233719521    1.9322788802
H        6.3736107593    1.1142615285    2.2447435926
H        2.7537701534    2.0121102738    0.0342958745
H        6.8723689167   -0.6353067169    0.5625882535
H        4.4462019869   -0.8420037059   -3.2934993854
H        5.7872414090   -1.9895474064   -3.5212125891
H        6.1296982134   -0.2766986672   -3.2237935649
H        4.7703502759   -2.1951282389   -1.2457747550
H        6.4857071987   -1.7642277188   -1.1882605478
18   
torsion grid (-120,)
C        4.4907573375    1.6988339888    1.2407288281
C        5.7242262882    0.9950061998    1.3562430114
C        3.5860978328    1.3559824922    0.2736715566
C        5.9813687776   -0.0055605888    0.4602715434
C        3.8275068412    0.2682982806   -0.6540427176
C        5.5134144119   -1.0732466486   -2.9035716650
C        5.3998243486   -1.4723502860   -1.4314642872
N        5.1087067190   -0.3324653619   -0.5413984739
O        3.0162803571   -0.1490093227   -1.4892935666
H        4.2654229335    2.5067046850    1.9332610543
H        6.4495415188    1.2310861186    2.1261218849
H        2.6284102788    1.8558848948    0.1739904348
H        6.9033463580   -0.5777913401    0.4872532205
H        4.5721777761   -0.6552795582   -3.2598393967
H        5.7534621331   -1.9594270311   -3.5005850339
H        6.3114324952   -0.3373167792   -3.0491016687
H        4.5902149825   -2.1978743406   -1.3101106439
H        6.3263333423   -1.9313511003   -1.0789639215
18   
torsion grid (-105,)
C        4.4630759135    1.6834689792    1.2321978458
C        5.7301565814    1.0335650413    1.2786007128
C        3.5058231951    1.2740331779    0.3441977446
C        5.9578944448    0.0017727860    0.4099019376
C        3.7300489887    0.1791510873   -0.5788239077
C        5.5773883171   -1.0543371307   -2.8349431064
C        5.3034532726   -1.5283297629   -1.4068200600
N        5.0173511317   -0.4111414876   -0.4911356931
O        2.9059201587   -0.2522161935   -1.3944654708
H        4.2565302904    2.5080176001    1.9108558446
H        6.5020027981    1.3322471374    1.9782623425
H        2.5295695486    1.7441440837    0.2902145411
H        6.8992888706   -0.5385652750    0.3896636187
H        4.7053358972   -0.5328198234   -3.2331928158
H        5.7899953900   -1.9161911680   -3.4761196844
H        6.4411077253   -0.3817097783   -2.8662499763
H        4.4334850489   -2.1883181727   -1.3945571401
H        6.1585525798   -2.0755956797   -1.0019492959
18   
torsion grid (-90,)
C        4.4702303789    1.6956345939    1.2187466692
C        5.7548131014    1.0792128888    1.1809733648
C        3.4599015883    1.2482072610    0.4119245746
C        5.9386940752    0.0289308537    0.3247542340
C        3.6463346938    0.1507327047   -0.5172721260
C        5.6644665809   -1.0254847222   -2.7826700819
C        5.2014647053   -1.5387900088   -1.4185687413
N        4.9363904052   -0.4389358379   -0.4775863911
O        2.7907130199   -0.2776711044   -1.3010192101
H        4.2945291671    2.5293127283    1.8949134498
H        6.5712654115    1.4167080061    1.8086865369
H        2.4740833918    1.7011322477    0.4157265118
H        6.8877739692   -0.4924489522    0.2439053967
H        4.8942795093   -0.3909814234   -3.2278863855
H        5.8494754060   -1.8681784646   -3.4568896756
H        6.5899556860   -0.4467973951   -2.6936430384
H        4.2737651900   -2.1025994128   -1.5209057982
H        5.9558480371   -2.1885397710   -0.9656372986
18   
torsion grid (-75,)
C        4.4591089736    1.6783577147    1.2145509606
C        5.7602494765    1.1107283974    1.0811789144
C        3.4071670631    1.1812366781    0.4956387689
C        5.9159907059    0.0565261011    0.2252687066
C        3.5616785799    0.0800222995   -0.4364296229
C        5.7908185093   -1.0490367541   -2.7251911231
C        5.1238245341   -1.5539903967   -1.4448585086
N        4.8716429963   -0.4662755457   -0.4852217674
O        2.6627255211   -0.3799847135   -1.1499422015
H        4.3049470524    2.5147146976    1.8926860477
H        6.6102244009    1.4882495687    1.6375769746
H        2.4085382907    1.5985634853    0.5700256222
H        6.8750814315   -0.4308653457    0.0772401292
H        5.1511835674   -0.3159151542   -3.2246194730
H        5.9588935895   -1.8839288845   -3.4131537189
H        6.7577442327   -0.5796205311   -2.5161695063
H        4.1568359974   -2.0039391903   -1.6661423150
H        5.7500921210   -2.3016707518   -0.9474429848
18   
torsion grid (-60,)
C        4.4629055502    1.6885469214    1.2396408450
C        5.7711273226    1.1756956318    0.9987365446
C        3.3789189326    1.1486117706    0.6051148656
C        5.9016492256    0.1355383495    0.1220898346
C        3.5012488867    0.0515485491   -0.3371084475
C        5.9270223098   -1.0802222837   -2.6659412040
C        5.0488541994   -1.5093768419   -1.4895570386
N        4.8288423497   -0.4270050138   -0.5121802294
O        2.5592860928   -0.4546416006   -0.9575092530
H        4.3288092245    2.5157515410    1.9330834942
H        6.6467767029    1.5843266709    1.4895198428
H        2.3723673402    1.5209685375    0.7635539411
H        6.8666310112   -0.3084874482   -0.1003022753
H        5.4842872388   -0.2256456713   -3.1863650037
H        6.0133045588   -1.9073264866   -3.3777338932
H        6.9384803539   -0.8044510684   -2.3520631811
H        4.0595402318   -1.8100379444   -1.8309823391
H        5.4990825520   -2.3582701916   -0.9624803808
18   
torsion grid (-45,)
C        4.4479790857    1.6953619830    1.2769584960
C        5.7572675523    1.2551781865    0.9275585637
C        3.3485091133    1.1107170572    0.7124779207
C        5.8755146872    0.2451854287    0.0137776737
C        3.4551623989    0.0288643731   -0.2479154116
C        6.0409373937   -1.1524236246   -2.5986190570
C        4.9659497362   -1.4369526275   -1.5502414196
N        4.7896874431   -0.3522103078   -0.5631473557
O        2.4944858827   -0.5433172440   -0.7755891771
H        4.3247438999    2.5011245325    1.9971328442
H        6.6461019173    1.6973448418    1.3623973794
H        2.3385844025    1.4223955075    0.9569874472
H        6.8443322403   -0.1343460815   -0.2899249224
H        5.8574710725   -0.1954894126   -3.0969966884
H        6.0133826177   -1.9416374956   -3.3562775036
H        7.0534559142   -1.1377513979   -2.1846351734
H        3.9909125887   -1.5648468852   -2.0185652409
H        5.1891005010   -2.3649407667   -1.0104865171
18   
torsion grid (-30,)
C        4.4438384222    1.6614618167    1.2963875548
C        5.7498469532    1.3162602970    0.8455964222
C        3.3454038327    1.0212477326    0.7920801806
C        5.8705937043    0.3410757313   -0.1062556248
C        3.4577503559   -0.0314186639   -0.1978632645
C        6.1504711548   -1.2405357472   -2.5399908206
C        4.9291300886   -1.3770983457   -1.6354972288
N        4.7856860855   -0.3035997929   -0.6299335890
O        2.5087525373   -0.6728255557   -0.6638232671
H        4.3213919063    2.4389836813    2.0470802460
H        6.6369233227    1.8052446148    1.2311656010
H        2.3374546832    1.2570173471    1.1167326326
H        6.8384780216    0.0413037736   -0.4884427844
H        6.1918949511   -0.2523719357   -3.0093297203
H        6.0771172713   -1.9884601324   -3.3351119339
H        7.0960708037   -1.4191206308   -2.0192142768
H        4.0116948542   -1.3538085581   -2.2237619173
H        4.9358880043   -2.3409442630   -1.1133940694
18   
torsion grid (-15,)
C        4.4455953646    1.6270788343    1.3138222029
C        5.7371319361    1.3621327432    0.7770393291
C        3.3525622668    0.9426201854    0.8567307923
C        5.8506858618    0.4168356302   -0.2064305800
C        3.4587414255   -0.0743493452   -0.1691106642
C        6.2033754084   -1.3287744966   -2.4809543822
C        4.8816970882   -1.3136174484   -1.7226957164
N        4.7703880750   -0.2698913686   -0.6821343650
O        2.5211766022   -0.7524867818   -0.6059345400
H        4.3296022865    2.3778723602    2.0922506857
H        6.6198136952    1.8876899957    1.1225083478
H        2.3554499470    1.1168759602    1.2470236662
H        6.8082374966    0.1801136289   -0.6520406761
H        6.4199368532   -0.3608970745   -2.9445708812
H        6.1297996726   -2.0711317683   -3.2810829036
H        7.0528591452   -1.6148973284   -1.8528135238
H        4.0481185767   -1.1517224542   -2.4088343706
H        4.6948333012   -2.2817714767   -1.2465318436
18   
torsion grid (0,)
C        4.4550315838    1.6107435571    1.3360036447
C        5.7244840133    1.4262518705    0.7193785609
C        3.3750746401    0.8774244259    0.9254273978
C        5.8326624035    0.5034127208   -0.2861896086
C        3.4713553803   -0.1018446311   -0.1369100668
C        6.2369762245   -1.3908329603   -2.4178754267
C        4.8567715239   -1.2370250480   -1.7928357373
N        4.7660705764   -0.2368260322   -0.7084495222
O        2.5404373615   -0.7975853910   -0.5603846432
H        4.3453763659    2.3382841473    2.1371293212
H        6.5965190286    1.9929228267    1.0244864506
H        2.3936646168    0.9927962817    1.3731197374
H        6.7752421545    0.3244605089   -0.7868826285
H        6.5871589580   -0.4675732364   -2.8905273726
H        6.1732635423   -2.1543547485   -3.1986567531
H        6.9896311311   -1.7237989397   -1.6958662360
H        4.1192486671   -0.9560473745   -2.5497207120
H        4.5117363034   -2.1890090612   -1.3803069059
18   
torsion grid (15,)
C        4.4595904614    1.5830172854    1.3557044466
C        5.6991754782    1.4821641790    0.6631240547
C        3.3964812342    0.8038127114    0.9885930589
C        5.7975096641    0.5851705576   -0.3661589587
C        3.4781937786   -0.1356959279   -0.1107271722
C        6.2451080219   -1.4610007207   -2.3554410197
C        4.8329173159   -1.1595537266   -1.8687691481
N        4.7507068368   -0.2076245149   -0.7411211242
O        2.5509554042   -0.8465476712   -0.5164739521
H        4.3591821072    2.2847611375    2.1806712392
H        6.5561690599    2.0889847204    0.9314804601
H        2.4371206706    0.8587395913    1.4921215743
H        6.7181186705    0.4652181597   -0.9225850176
H        6.7306997899   -0.5964672157   -2.8189383110
H        6.1841459975   -2.2433718488   -3.1176009334
H        6.8851953045   -1.8323215544   -1.5485653724
H        4.2157703046   -0.7668654209   -2.6835751509
H        4.3396793764   -2.0740511225   -1.5337421080
18   
torsion grid (30,)
C        4.4744114556    1.5666056480    1.3875346040
C        5.6756890802    1.5512204239    0.6229667911
C        3.4350908449    0.7405675678    1.0584971303
C        5.7604858652    0.6857690292   -0.4331878040
C        3.4988506873   -0.1637497815   -0.0723851135
C        6.2433528998   -1.5330910772   -2.2621603916
C        4.8292662419   -1.0624223076   -1.9343506778
N        4.7377359837   -0.1545663238   -0.7718461480
O        2.5809525076   -0.9050323207   -0.4426695430
H        4.3847426471    2.2402516030    2.2368066912
H        6.5133249097    2.1973364531    0.8586994480
H        2.5050196260    0.7304037987    1.6168580305
H        6.6513273570    0.6289382914   -1.0463064961
H        6.8816460283   -0.7394877130   -2.6622683385
H        6.1801962664   -2.3100379855   -3.0298804390
H        6.7335947809   -1.9656572143   -1.3841534527
H        4.3743863845   -0.5643121805   -2.7983344523
H        4.1871725362   -1.9107357161   -1.6967367960
18   
torsion grid (45,)
C        4.4942958185    1.5486299215    1.4160029409
C        5.6382491522    1.6311940285    0.5706436694
C        3.4891797727    0.6655127659    1.1347055068
C        5.6993344483    0.8017882646   -0.5144464043
C        3.5311123993   -0.2118065654   -0.0197166613
C        6.1898390394   -1.6241203368   -2.1513699562
C        4.8178868522   -0.9694453213   -1.9939048791
N        4.7062078330   -0.0888311474   -0.8131732106
O        2.6438460182   -1.0161664619   -0.3271073368
H        4.4221985139    2.1928151683    2.2894553098
H        6.4476173035    2.3247344220    0.7669786913
H        2.6054741244    0.5780962838    1.7578417670
H        6.5423284300    0.8200632884   -1.1955622461
H        6.9815767947   -0.9112107186   -2.3997820483
H        6.1427386216   -2.3515726549   -2.9676194751
H        6.4768228107   -2.1549938835   -1.2383687295
H        4.5633664782   -0.3867391949   -2.8871907410
H        4.0403620930   -1.7220396319   -1.8696192607
18   
torsion grid (60,)
C        4.5167353082    1.5179610858    1.4013185114
C        5.6042095370    1.7030968658    0.4982048498
C        3.5607366921    0.5732608794    1.1507402166
C        5.6557283888    0.9128215817   -0.6154777959
C        3.6065501351   -0.2818807885   -0.0209788019
C        6.1303268813   -1.7240512567   -2.0554743459
C        4.8514096940   -0.8856498242   -2.0814267098
N        4.7025357612   -0.0280739729   -0.8907970145
O        2.7848379622   -1.1683181818   -0.2806622362
H        4.4496301398    2.1333573778    2.2956886733
H        6.3743218200    2.4455420655    0.6723018767
H        2.7250565110    0.4052493798    1.8217909067
H        6.4505103418    1.0070432351   -1.3484517290
H        7.0337171703   -1.1064814328   -2.0658187285
H        6.1599228789   -2.3719051198   -2.9372918582
H        6.1581987296   -2.3579085572   -1.1640651898
H        4.8299407311   -0.2432048295   -2.9690893918
H        3.9684003212   -1.5224307970   -2.1039638645
18   
torsion grid (75,)
C        4.5174352615    1.4930103274    1.3895334862
C        5.5495489496    1.7776097267    0.4478381915
C        3.6282135124    0.4788284388    1.1631050295
C        5.6134030915    1.0141248221   -0.6840063876
C        3.6984507008   -0.3566617994   -0.0210751915
C        6.0356008479   -1.8227909670   -1.9915724723
C        4.8906433211   -0.8197921910   -2.1404481672
N        4.7209083918    0.0097882173   -0.9361383943
O        2.9570693325   -1.3170802200   -0.2593257740
H        4.4398587344    2.0882730934    2.2965803369
H        6.2669554893    2.5743140906    0.6064476196
H        2.8388261188    0.2346616921    1.8661256274
H        6.3670503430    1.1759043128   -1.4490038500
H        6.9916318073   -1.3183844408   -1.8166227716
H        6.1283192835   -2.4221967619   -2.9030218869
H        5.8429790889   -2.4990329119   -1.1539563176
H        5.0673953729   -0.1490107092   -2.9874554765
H        3.9444946455   -1.3358090715   -2.2987613408
18   
torsion grid (90,)
C        4.5238461482    1.5009297025    1.3973869894
C        5.4992609112    1.8722764976    0.4267241689
C        3.7139817980    0.4176813718    1.1908299360
C        5.5914331936    1.1205911018   -0.7119269467
C        3.8150335258   -0.4020159483   -0.0009767183
C        5.9429388913   -1.9125925778   -1.9437398320
C        4.9573238513   -0.7630175935   -2.1574865463
N        4.7811014688    0.0442318540   -0.9398268494
O        3.1436320388   -1.4144823449   -0.2332446137
H        4.4252193908    2.0847091643    2.3098374643
H        6.1532428686    2.7247946212    0.5682679231
H        2.9667886722    0.1087916854    1.9142090607
H        6.3072364269    1.3449309331   -1.4970719530
H        6.9308207043   -1.5375792249   -1.6558377477
H        6.0506116156   -2.4903537442   -2.8675980606
H        5.5783697980   -2.5808887206   -1.1598922730
H        5.2985359622   -0.0940193331   -2.9527095950
H        3.9752184838   -1.1518892826   -2.4281814969
18   
torsion grid (105,)
C        4.5163271062    1.5097540024    1.3937165633
C        5.4382759682    1.9556346985    0.4030976183
C        3.7918210404    0.3644912673    1.2039127048
C        5.5783717347    1.2031460487   -0.7305441101
C        3.9245066485   -0.4396213447    0.0052529781
C        5.8753104301   -1.9945744946   -1.9448175173
C        5.0502006855   -0.7263983241   -2.1683253867
N        4.8715040397    0.0508961001   -0.9304664560
O        3.2920542342   -1.4744711012   -0.2389080058
H        4.3866039221    2.0882273037    2.3056531702
H        6.0172055050    2.8635806319    0.5255654547
H        3.0778000019    0.0044085701    1.9370543817
H        6.2616847996    1.4812544757   -1.5269829963
H        6.8751478221   -1.7516216804   -1.5696430934
H        5.9855040541   -2.5351803881   -2.8906917457
H        5.3752191482   -2.6483053046   -1.2281645154
H        5.5253683875   -0.0711719430   -2.9027348135
H        4.0548632842   -0.9896092855   -2.5327830989
18   
torsion grid (120,)
C        4.5447502620    1.5272633544    1.4026449153
C        5.3975500402    2.0269918906    0.3764074279
C        3.9122034742    0.3237924332    1.2519738385
C        5.5812272755    1.2584371349   -0.7396623732
C        4.0636626810   -0.4798425910    0.0548030737
C        5.8314124605   -2.0806795962   -1.9488268654
C        5.1614062392   -0.7199870300   -2.1460520957
N        4.9928961965    0.0322516259   -0.8882576306
O        3.4521039927   -1.5287107493   -0.1813128715
H        4.3897819223    2.1128894171    2.3060048825
H        5.8940593692    2.9867051243    0.4598207956
H        3.2383495578   -0.0736995262    2.0035882876
H        6.2218720834    1.5756761423   -1.5564562672
H        6.8260229469   -1.9664636540   -1.5046289105
H        5.9462928959   -2.5710744360   -2.9212867558
H        5.2233324191   -2.7163288654   -1.3056043560
H        5.7444164149   -0.0925713243   -2.8241399589
H        4.1669165534   -0.8607824853   -2.5793520058
18   
torsion grid (135,)
C        4.5859543704    1.5246682006    1.4211012988
C        5.3486822393    2.0703839456    0.3478023992
C        4.0585552743    0.2676839588    1.3199724857
C        5.5694791446    1.2860270906   -0.7491761116
C        4.2183300512   -0.5407521051    0.1253338497
C        5.7894974766   -2.1666062276   -1.9644973055
C        5.2810892541   -0.7321890680   -2.1161120164
N        5.1106228433   -0.0028199377   -0.8404288427
O        3.6338239973   -1.6100924469   -0.0817493117
H        4.4123445146    2.1180122283    2.3159614946
H        5.7531908557    3.0752147331    0.3836690145
H        3.4423624753   -0.1665563258    2.1001993878
H        6.1532763973    1.6372644267   -1.5941166398
H        6.7340258169   -2.1896894032   -1.4102165998
H        5.9732245974   -2.5799532887   -2.9621403002
H        5.0610019174   -2.7881226763   -1.4483348853
H        5.9733325125   -0.1458727730   -2.7243736978
H        4.3104868604   -0.7428155021   -2.6242112523
18   
torsion grid (150,)
C        4.5832660390    1.5729563407    1.4223960102
C        5.2712605124    2.1448837782    0.3121163021
C        4.1519301119    0.2783746666    1.3652700020
C        5.5253988205    1.3471516199   -0.7664507206
C        4.3291404841   -0.5459052381    0.1812310395
C        5.6800058644   -2.1859765530   -2.0071317428
C        5.3839008137   -0.6887353533   -2.1003482982
N        5.1699098630    0.0211930181   -0.8143404274
O        3.7933052926   -1.6470957878    0.0211782276
H        4.3905623582    2.1744545553    2.3078322161
H        5.5974089431    3.1784659649    0.3082896365
H        3.5910505187   -0.1819104872    2.1718713503
H        6.0601517970    1.7186865693   -1.6349620190
H        6.4872144118   -2.3837968695   -1.2942713117
H        6.0129525236   -2.5254461627   -2.9945071332
H        4.8056541589   -2.7538652783   -1.7018980783
H        6.2168717291   -0.1791341113   -2.5904761892
H        4.4916788784   -0.5355932200   -2.7196689473
18   
torsion grid (165,)
C        4.5282325087    1.5925386334    1.4115123219
C        5.1587545851    2.1728493598    0.2715777346
C        4.1986662176    0.2681885345    1.4052982839
C        5.4487015583    1.3582355329   -0.7839238770
C        4.4321838286   -0.5941738622    0.2560435630
C        5.5481907793   -2.2157847772   -2.0596864113
C        5.4894084412   -0.6894151555   -2.0697841338
N        5.1745268918    0.0119575264   -0.7934604546
O        4.0212183665   -1.7558324441    0.1844501462
H        4.3032307084    2.2083144460    2.2793489405
H        5.4141708879    3.2252876597    0.2281576332
H        3.6954213306   -0.2072977745    2.2405985845
H        5.9398454378    1.7374350956   -1.6749354622
H        6.2048370381   -2.5900817511   -1.2704302008
H        5.9629330426   -2.5270243808   -3.0259741110
H        4.5692695240   -2.6677738929   -1.9238556490
H        6.4601303019   -0.2985329634   -2.3884964711
H        4.7497879629   -0.3648348832   -2.8122004510
18   
torsion grid (180,)
C        4.4650741132    1.6149479812    1.3911242723
C        5.0681671991    2.1966565662    0.2371481900
C        4.2313499432    0.2712858616    1.4310080412
C        5.3931083913    1.3709114544   -0.7988949247
C        4.5710708644   -0.6255197431    0.3346074131
C        5.4075450283   -2.2004739342   -2.1291632515
C        5.6039735716   -0.6905891192   -2.0248157181
N        5.1687561932    0.0160652063   -0.7837579799
O        4.3603169595   -1.8411421553    0.3672670240
H        4.1929390226    2.2430378957    2.2363686594
H        5.2702148371    3.2591668336    0.1659786283
H        3.7749444838   -0.2111265568    2.2889287573
H        5.8545184489    1.7522696474   -1.7049555055
H        5.9540879302   -2.7438529702   -1.3591324777
H        5.7926529286   -2.4970779461   -3.1125999865
H        4.3590156016   -2.4879333194   -2.0606203403
H        6.6690363888   -0.4642861252   -2.1488801298
H        5.0746425077   -0.2079717134   -2.8542020771
