18   
torsion grid (-165,)
C        1.8419992597   -0.3115157057    1.5536639314
C       -0.5267583957   -0.4592540663    1.9779347452
C        2.0553146713   -0.9029352525    2.7946663141
C        0.5247685985   -0.0854042231    1.1439921964
C        0.9277820403   -1.2460075057    3.5652258517
C       -0.2856987926   -0.5867925584    6.3571383074
C        0.2329565965   -1.9342449802    5.7736947413
N       -0.3091699714   -1.0387853665    3.1653043040
O        1.1782570307   -1.8575653512    4.7717164092
F       -1.3012615695   -0.0607317596    5.6309546585
F        0.7479119032    0.3022675673    6.3741902319
F        0.8823354157   -2.5506900070    6.7978810187
F       -0.8206668257   -2.7152082289    5.4387195423
Cl       3.6692031038   -1.1991873296    3.3695900788
Br       0.1691779196    0.7313966435   -0.5444447810
H        2.6841454945   -0.0304979980    0.9304665075
H       -1.5622442081   -0.2975941288    1.6913000496
H       -0.6307556373   -0.7526199897    7.3812785845
18   
torsion grid (-150,)
C        1.7787636298   -0.6757146503    1.3720204369
C       -0.5346599175   -0.5199037735    2.0342537368
C        2.0680550196   -1.1455380465    2.6487239838
C        0.4520283010   -0.3575916656    1.0647929141
C        1.0028800847   -1.2739388219    3.5599228222
C       -0.4182681384   -0.6424374879    6.2778038232
C        0.3468296989   -1.9150285671    5.7806286158
N       -0.2432164842   -0.9759330807    3.2593076667
O        1.3182983987   -1.7338604526    4.8140893251
F       -1.6407397769   -0.5170715830    5.7137382665
F        0.3257162400    0.4635494542    5.9927875229
F        1.0403848869   -2.3737797258    6.8578370348
F       -0.5394567019   -2.8770599943    5.4340121904
Cl       3.6974855006   -1.5548000581    3.0980885621
Br      -0.0018553089    0.2977445085   -0.6700678233
H        2.5711524229   -0.5608338540    0.6402333892
H       -1.5753253924   -0.2827039378    1.8315014531
H       -0.5390287820   -0.7122299740    7.3621818575
18   
torsion grid (-135,)
C        1.7996914141   -0.6314799832    1.3884000521
C       -0.5160979105   -0.4870009215    2.0442886613
C        2.0838839486   -1.1182146603    2.6602464509
C        0.4741624634   -0.3106714724    1.0803924644
C        1.0163370910   -1.2597606672    3.5655699121
C       -0.3991980899   -0.6330300331    6.2669841391
C        0.3298608694   -1.9294813044    5.7581072737
N       -0.2299800279   -0.9585297255    3.2642604479
O        1.3254049821   -1.7370830992    4.8160366506
F       -1.7007529254   -0.6210678695    5.8955733311
F        0.2150137307    0.4755004343    5.7667642774
F        0.9813749646   -2.4492102540    6.8325947625
F       -0.5698401434   -2.8492317314    5.3465723474
Cl       3.7121363665   -1.5323762690    3.1105129979
Br       0.0253455167    0.3674455550   -0.6471446559
H        2.5950206889   -0.5063989175    0.6614807356
H       -1.5559901091   -0.2476175158    1.8401682203
H       -0.3426351925   -0.5986618310    7.3579351776
18   
torsion grid (-120,)
C        1.4959914312   -0.2369233069    1.4835392642
C       -0.6599877687   -1.3134061330    1.4826409042
C        1.6238396329   -0.5920957445    2.8224500653
C        0.3311734660   -0.6069720162    0.8053074815
C        0.5701572007   -1.3085137974    3.4195980746
C       -0.6048017724   -3.7571108554    4.9466656265
C       -0.2831610368   -2.2924043498    5.4258136669
N       -0.5267924939   -1.6521980176    2.7717429803
O        0.7311320302   -1.6484459764    4.7407845696
F       -0.3924376036   -4.6309745340    5.9637063118
F        0.1974325682   -4.1116795413    3.9060782967
F       -1.4421546215   -1.5743025659    5.3806024854
F        0.1031558722   -2.3102796412    6.7156130550
Cl       3.0475216807   -0.1626791708    3.7231773986
Br       0.1021228682   -0.1529661435   -1.0346239362
H        2.2878589415    0.3139426119    0.9874949763
H       -1.5774855354   -1.6163625854    0.9859585680
H       -1.6457403655   -3.8197830790    4.6258828619
18   
torsion grid (-105,)
C        1.4844793274   -0.2398147277    1.4661033713
C       -0.6254327158   -1.4014249581    1.4811595697
C        1.6324702310   -0.5786902574    2.8071269698
C        0.3330263775   -0.6606874152    0.7941676823
C        0.6110382059   -1.3323843049    3.4142635904
C       -0.6322155304   -3.7155027620    4.8932064137
C       -0.2284023001   -2.2967678329    5.4280920740
N       -0.4733973084   -1.7255225921    2.7724878355
O        0.7872418711   -1.6616754328    4.7342613463
F       -0.7422150366   -4.5791270075    5.9351162290
F        0.3188430013   -4.1854414647    4.0382367836
F       -1.3566521652   -1.5276912123    5.4491402216
F        0.2016146912   -2.3855652132    6.6998145243
Cl       3.0398289330   -0.0846883265    3.6993398659
Br       0.0775511647   -0.2287379916   -1.0474067952
H        2.2514073892    0.3390645080    0.9628240584
H       -1.5318445131   -1.7448863853    0.9907478001
H       -1.5842178262   -3.6576842660    4.3661011968
18   
torsion grid (-90,)
C        1.4239652960   -0.1765799315    1.4831800003
C       -0.6533832715   -1.3976814714    1.4954839724
C        1.5939424655   -0.5355290883    2.8160006492
C        0.2775054874   -0.6176765993    0.8149805709
C        0.5994748545   -1.3286366959    3.4195714228
C       -0.6564262035   -3.6983296736    4.8839931916
C       -0.1946899005   -2.3186148460    5.4487405400
N       -0.4789381610   -1.7409081808    2.7797356589
O        0.8009564651   -1.6766888827    4.7293062398
F       -1.0201083821   -4.4992441432    5.9202180762
F        0.3764090700   -4.2877967297    4.2175648887
F       -1.2997979783   -1.5255560853    5.5569198479
F        0.3117044842   -2.4724563604    6.6858808771
Cl       2.9945085575   -0.0176702568    3.7044226244
Br      -0.0087491314   -0.1579579577   -1.0148055503
H        2.1691271564    0.4331415732    0.9835477263
H       -1.5545576536   -1.7575018803    1.0071362362
H       -1.4986981247   -3.5741118999    4.2059825286
18   
torsion grid (-75,)
C        1.3944033506   -0.0926177005    1.5772144633
C       -0.6641502243   -1.3437651569    1.5412936441
C        1.5781127176   -0.5104895734    2.8907315567
C        0.2505819050   -0.5180585505    0.8942271547
C        0.5985699086   -1.3465635081    3.4616278960
C       -0.6587992357   -3.7486882896    4.9255208708
C       -0.1739482096   -2.3852866943    5.4882017871
N       -0.4760392245   -1.7457800618    2.8068750991
O        0.8187368771   -1.7535121678    4.7507546666
F       -1.2821334549   -4.4284722676    5.9260466969
F        0.4248466137   -4.4685182003    4.5175809769
F       -1.2601417828   -1.5768852086    5.6299249031
F        0.3702191235   -2.5684822028    6.7060945228
Cl       2.9752874169   -0.0122111701    3.7951254298
Br      -0.0537954869    0.0251216758   -0.9093712991
H        2.1271897266    0.5516229736    1.1032918666
H       -1.5628864538   -1.6937871994    1.0414218743
H       -1.3445991163   -3.6128747242    4.0920050357
18   
torsion grid (-60,)
C        1.3896707587   -0.0582239396    1.6296668947
C       -0.6575566062   -1.3263843304    1.5581481322
C        1.5871294556   -0.5311284683    2.9228015834
C        0.2433741360   -0.4639515677    0.9394007651
C        0.6213067450   -1.4007799587    3.4660620842
C       -0.6413431350   -3.8192040298    4.9827729714
C       -0.1523784284   -2.4417150095    5.4953593784
N       -0.4543202106   -1.7834924073    2.8021652973
O        0.8605123723   -1.8667553960    4.7330294336
F       -1.5344901107   -4.3171248120    5.8832992317
F        0.4284827650   -4.6611894738    4.9240492352
F       -1.2173887803   -1.6057527019    5.5947854778
F        0.3876014209   -2.5906285748    6.7198932545
Cl       2.9862414846   -0.0568467682    3.8367671391
Br      -0.0845615146    0.1561908306   -0.8348893436
H        2.1121627523    0.6134927763    1.1785802043
H       -1.5577647667   -1.6623610594    1.0512591124
H       -1.1111837718   -3.7437948686    4.0039644607
18   
torsion grid (-45,)
C        1.3503900994   -0.0398503136    1.5561000585
C       -0.6854106673   -1.3279156247    1.5055285674
C        1.5771703017   -0.5291466878    2.8386498536
C        0.1948815694   -0.4468375024    0.8826433831
C        0.6308808537   -1.4157844339    3.3878709278
C       -0.5967822607   -3.8369337206    4.9650122273
C       -0.1167554051   -2.4381682241    5.4365112334
N       -0.4528644164   -1.8013255341    2.7379643983
O        0.8981971643   -1.9020238310    4.6425501936
F       -1.7030238015   -4.1813971605    5.6837139337
F        0.3851157631   -4.7402581151    5.2369727932
F       -1.1710348673   -1.5919596694    5.5095122588
F        0.4344054205   -2.5450848989    6.6602735437
Cl       2.9883937272   -0.0524892695    3.7326555271
Br      -0.1748253088    0.1970240792   -0.8749211247
H        2.0570242975    0.6460885057    1.1012768043
H       -1.5918749247   -1.6657149061    1.0111141713
H       -0.8356419371   -3.8491113622    3.9031346054
18   
torsion grid (-30,)
C        1.3254217690   -0.0439089671    1.5287501581
C       -0.7255554218   -1.3094258103    1.5256599448
C        1.5709026761   -0.5261643387    2.8104724197
C        0.1529277615   -0.4429817775    0.8800112168
C        0.6242377817   -1.3965655033    3.3841634566
C       -0.5587282024   -3.8388202092    4.9360440076
C       -0.1055370701   -2.4288895431    5.4310581044
N       -0.4758506326   -1.7749589902    2.7577121407
O        0.9044894160   -1.8742432063    4.6391612404
F       -1.8220335423   -4.0837050681    5.3811283742
F        0.2687465651   -4.7741550483    5.4774892891
F       -1.1643298156   -1.5935605764    5.5141574565
F        0.4509403174   -2.5346390972    6.6521588373
Cl       3.0049125396   -0.0610805961    3.6742474282
Br      -0.2419712866    0.1919487785   -0.8753876589
H        2.0311946960    0.6302782290    1.0553773455
H       -1.6447347758   -1.6412040624    1.0510746682
H       -0.5411486902   -3.9131413352    3.8505716212
18   
torsion grid (-15,)
C        1.1672072832   -0.0642435145    1.3612952934
C       -0.8702131336   -1.3435983245    1.4877590563
C        1.4697169731   -0.4964649546    2.6487568047
C       -0.0267393436   -0.4952874211    0.7747113061
C        0.5537745610   -1.3508633748    3.2914830271
C       -0.5631940508   -3.7650129430    4.8842500488
C       -0.0981206659   -2.3464766632    5.3746142830
N       -0.5674384285   -1.7600875611    2.7253166575
O        0.8812440810   -1.7795201069    4.5522644621
F       -1.9053224843   -3.8936784737    5.0556469875
F        0.0538103344   -4.7169638461    5.6375014311
F       -1.1533114333   -1.5131033644    5.5007445331
F        0.4983946652   -2.4503557823    6.5761428224
Cl       2.9340646392    0.0093096459    3.4357020786
Br      -0.4977054716    0.0714434091   -0.9855368194
H        1.8473022075    0.5969803214    0.8350404939
H       -1.8048147833   -1.7002401865    1.0642093597
H       -0.3208437215   -3.9269282906    3.8358623154
18   
torsion grid (0,)
C        1.2025841716   -0.0395925451    1.4385565085
C       -0.8111389099   -1.3604362336    1.5414855044
C        1.5100783460   -0.4832031922    2.7210399191
C        0.0184315632   -0.4860410965    0.8434202386
C        0.6081429465   -1.3627247438    3.3485719623
C       -0.5556462157   -3.7804722666    4.8649464090
C       -0.0444202368   -2.3924172518    5.4097090554
N       -0.5024755033   -1.7863409248    2.7739871457
O        0.9357535771   -1.8059821472    4.6041627177
F       -1.9045854879   -3.7647344520    4.7356023029
F       -0.2286039115   -4.7563132841    5.7579735672
F       -1.0776729628   -1.5399438613    5.5940165520
F        0.5661326695   -2.5674551435    6.5957796880
Cl       2.9624594004    0.0390120383    3.5197427673
Br      -0.4591271111    0.0967684084   -0.9097463690
H        1.8709100142    0.6417491335    0.9229651290
H       -1.7375186428   -1.7297960242    1.1107968485
H       -0.1025350221   -4.0193738636    3.9035356277
18   
torsion grid (15,)
C        1.2766842086   -0.0391320250    1.5117437458
C       -0.7109845265   -1.4026725180    1.5220272669
C        1.6324286361   -0.6220624531    2.7239368488
C        0.0843593496   -0.4419478206    0.9022328934
C        0.7663551664   -1.5867793297    3.2725648564
C       -0.9918762917   -3.0937188051    5.3369864385
C        0.5092378361   -3.3054354338    4.9223549560
N       -0.3625817914   -1.9537942052    2.6930792139
O        1.1276280141   -2.1348753304    4.4769555068
F       -1.0695766571   -3.0063597945    6.6932255788
F       -1.7395225751   -4.1483099840    4.9233038595
F        1.2286935424   -3.6799509855    5.9968014044
F        0.6149106948   -4.2874518365    3.9990214375
Cl       3.1044142853   -0.1712459214    3.5299140277
Br      -0.4509082560    0.3170273026   -0.7645563217
H        1.9197354848    0.7061770264    1.0559722158
H       -1.6441075141   -1.7383996554    1.0785410322
H       -1.3985356484   -2.1827228902    4.9016414148
18   
torsion grid (30,)
C        1.3182670068   -0.0310634027    1.5465301476
C       -0.6902072195   -1.3628288533    1.5137254859
C        1.6447380665   -0.6318582580    2.7582708469
C        0.1294977559   -0.4092706433    0.9151498350
C        0.7553692154   -1.5873799133    3.2859452011
C       -1.0005474969   -3.1299018998    5.3668282120
C        0.4837987289   -3.3243910784    4.9224729808
N       -0.3700408136   -1.9301666238    2.6853357895
O        1.0930577785   -2.1467075683    4.4929196526
F       -1.0191473329   -2.7334645779    6.6679413688
F       -1.6677262804   -4.3091091919    5.2496187645
F        1.2178844603   -3.7241199419    5.9807571891
F        0.5677963965   -4.2932550882    3.9818753456
Cl       3.1114072074   -0.2125917221    3.5896953606
Br      -0.3683473968    0.3737896628   -0.7519464783
H        1.9803740250    0.7080040398    1.1081947869
H       -1.6212986861   -1.6791866307    1.0520477281
H       -1.5036505866   -2.3830307571    4.7550446779
18   
torsion grid (45,)
C        1.3480837958   -0.0345024447    1.5701400535
C       -0.6896266907   -1.3184716585    1.5249740967
C        1.6586455834   -0.6481086647    2.7795827338
C        0.1529751515   -0.3811488040    0.9328535287
C        0.7446785148   -1.5841918483    3.3004691976
C       -1.0106539417   -3.1798157841    5.3659236370
C        0.4685601084   -3.3386819906    4.9228412933
N       -0.3866827037   -1.8978367726    2.6952991542
O        1.0666625822   -2.1523678937    4.5075131214
F       -1.0387435749   -2.5004093623    6.5447154600
F       -1.5515895343   -4.4160130590    5.5478107168
F        1.2032076465   -3.7458438133    5.9783282262
F        0.5558016806   -4.2966174790    3.9680107475
Cl       3.1337776754   -0.2683044702    3.6150267733
Br      -0.3218337016    0.4215883661   -0.7316742388
H        2.0283705181    0.6909120197    1.1369665164
H       -1.6263690587   -1.6109359247    1.0589824419
H       -1.5944138521   -2.6438194339    4.6191596608
18   
torsion grid (60,)
C        1.3139514899    0.0164764064    1.5522056404
C       -0.7270571999   -1.2634652303    1.5126871896
C        1.6450663169   -0.6289761222    2.7391498795
C        0.1058912398   -0.3121867859    0.9298021773
C        0.7392965215   -1.5766700666    3.2540713587
C       -1.0070855719   -3.2039131044    5.2772250324
C        0.4761394226   -3.3525894540    4.8564766102
N       -0.4030262977   -1.8736921832    2.6617358130
O        1.0850330356   -2.1746225154    4.4388221583
F       -1.0867101792   -2.2669429671    6.2628009448
F       -1.4366901147   -4.3997573241    5.7674295843
F        1.1987123305   -3.7554823409    5.9203368378
F        0.5646145835   -4.3141296593    3.9011768177
Cl       3.1363001875   -0.2731467605    3.5560207853
Br      -0.3995940500    0.5348451845   -0.7033296490
H        1.9872770796    0.7520364228    1.1252693219
H       -1.6729279848   -1.5422099438    1.0568385369
H       -1.6335097667   -2.9101615654    4.4368333640
18   
torsion grid (75,)
C        1.3459651829   -0.0124707072    1.6284369090
C       -0.6783328975   -1.3161630984    1.5610213799
C        1.6939756698   -0.6901139659    2.7919604035
C        0.1372509543   -0.3354927163    1.0037813037
C        0.8040789611   -1.6660650195    3.2817802292
C       -1.0051865598   -3.2105753194    5.2380874447
C        0.4924245543   -3.4269781346    4.8890594003
N       -0.3365997254   -1.9608137947    2.6862800042
O        1.1698321054   -2.3016979775    4.4385882331
F       -1.1350490889   -2.0349353353    5.9161580833
F       -1.4075257676   -4.2268834578    6.0500244434
F        1.1623457652   -3.8078824738    5.9926752001
F        0.5731113884   -4.4346784054    3.9772059002
Cl       3.1845324128   -0.3386124005    3.6119422835
Br      -0.3920833690    0.5599397070   -0.5958578314
H        2.0062360198    0.7459235732    1.2215863467
H       -1.6240582693   -1.5921261346    1.1032727351
H       -1.6240708373   -3.1894866788    4.3438131226
18   
torsion grid (90,)
C        1.2723532055    0.0755008215    1.6504280234
C       -0.7226228110   -1.2731364095    1.5755992468
C        1.6583209072   -0.6329863752    2.7831325448
C        0.0590999200   -0.2542824143    1.0383225916
C        0.8009880233   -1.6455930156    3.2545249693
C       -0.9936153739   -3.1883948725    5.1811043891
C        0.5054283976   -3.4345708935    4.8200288089
N       -0.3433831507   -1.9485795191    2.6698985740
O        1.2014555872   -2.3163752197    4.3794271303
F       -1.1528312345   -1.8980075994    5.5924610180
F       -1.3327421190   -4.0022610986    6.2170431390
F        1.1810703296   -3.8533468612    5.9035715948
F        0.5542456155   -4.4231395503    3.8824587274
Cl       3.1556128178   -0.2743927381    3.5888006611
Br      -0.5228551552    0.6849789186   -0.5176178430
H        1.9065025767    0.8632624485    1.2580969527
H       -1.6705290522   -1.5552184132    1.1261686098
H       -1.6407154915   -3.3840209364    4.3284501583
18   
torsion grid (105,)
C        1.2899955611    0.0685290625    1.6825500275
C       -0.6781980230   -1.3169962534    1.5530427227
C        1.6673449168   -0.6483460714    2.8132056127
C        0.0946764105   -0.2761200330    1.0446183233
C        0.8203447110   -1.6819228659    3.2545610534
C       -0.9946439058   -3.1819080103    5.2085684277
C        0.4928713546   -3.4740731267    4.7981305285
N       -0.3067887652   -1.9998028073    2.6446151503
O        1.2118137871   -2.3637004685    4.3777422495
F       -1.1772209305   -1.8401136752    5.3657475217
F       -1.2481903929   -3.7633215710    6.4113092122
F        1.1814087879   -3.9596594541    5.8439661774
F        0.4838827379   -4.4250341305    3.8211110342
Cl       3.1419279202   -0.2720369252    3.6529023909
Br      -0.4768801621    0.6744494372   -0.5086111624
H        1.9161001112    0.8734846728    1.3128487676
H       -1.6120832258   -1.6101522732    1.0817718028
H       -1.6863629998   -3.5596449824    4.4563371158
18   
torsion grid (120,)
C        1.2717417590    0.1347517580    1.7223372999
C       -0.6622451118   -1.2850025336    1.4964874602
C        1.6344564898   -0.6116986071    2.8386830563
C        0.1007763838   -0.2118303092    1.0423684044
C        0.7976125993   -1.6756479980    3.2237639899
C       -0.9826149049   -3.1952173252    5.2839152791
C        0.4650851429   -3.4993373873    4.7420638769
N       -0.3054374385   -1.9962613072    2.5740518033
O        1.1820787443   -2.3853958244    4.3346384830
F       -1.2500925200   -1.8624039141    5.2025766333
F       -1.0537320573   -3.5332694703    6.5986869349
F        1.2088083116   -4.0602828620    5.7115735725
F        0.3614797830   -4.4015841761    3.7267159385
Cl       3.0790838209   -0.2323549615    3.7287230466
Br      -0.4512506681    0.7798330338   -0.4926381143
H        1.8902359970    0.9640211708    1.3962411818
H       -1.5773344521   -1.5813087923    0.9913474458
H       -1.7300837372   -3.7501471629    4.7152522197
18   
torsion grid (135,)
C        1.2610019553    0.2020034957    1.7730674130
C       -0.6341641605   -1.2423715044    1.4204590879
C        1.5974515600   -0.5809042558    2.8724350624
C        0.1229352380   -0.1380073245    1.0365430839
C        0.7675824205   -1.6748891687    3.1835443851
C       -0.9549847554   -3.2081485491    5.3847684746
C        0.4199336547   -3.5263899466    4.6937224640
N       -0.3027928704   -1.9896371638    2.4812744943
O        1.1386289231   -2.4199799713    4.2783930407
F       -1.3726829311   -1.9532627096    5.0683109384
F       -0.8082315970   -3.2608341078    6.7349852702
F        1.2193863933   -4.1516154760    5.5812364244
F        0.1973637778   -4.3978831462    3.6734921198
Cl       3.0005815826   -0.2083151210    3.8301581102
Br      -0.3917996853    0.9037148408   -0.4784420256
H        1.8743097490    1.0550135017    1.5034580600
H       -1.5242978229   -1.5356158727    0.8707310013
H       -1.7127951962   -3.9293022008    5.0713450463
18   
torsion grid (150,)
C        1.7134175517   -0.3069282043    1.4267921445
C       -0.6255347072   -0.6070474059    1.9213680913
C        1.9981141132   -0.8071460849    2.6932988589
C        0.3748152465   -0.2060992979    1.0385831203
C        0.9184441970   -1.1865806311    3.5138516712
C       -0.2062385769   -0.6361145841    6.4537858396
C        0.3345169930   -1.9213658352    5.7519677999
N       -0.3400015828   -1.0920166528    3.1362521994
O        1.2549253850   -1.6990909455    4.7473659404
F       -0.3514453655    0.3761364597    5.5574028919
F        0.6797780032   -0.2346652408    7.4031013670
F        0.9946219589   -2.6514901880    6.6792576654
F       -0.7245539479   -2.6677825946    5.3449168049
Cl       3.6434059840   -0.9489097288    3.2389034230
Br      -0.0805117774    0.4766108578   -0.6852091297
H        2.5184311937   -0.0018472731    0.7669422714
H       -1.6761993264   -0.5409289778    1.6522129935
H       -1.1716180238   -0.8405292406    6.9235128304
18   
torsion grid (165,)
C        1.5524186109   -0.2958031077    1.5535674163
C       -0.7182285683   -1.0881808640    1.7360597229
C        1.7986259765   -0.8664937176    2.8002689980
C        0.2676679075   -0.4090084339    1.0194227991
C        0.7417914510   -1.5327084448    3.4438777777
C        0.0758981570   -0.5826152404    6.3001762726
C        0.2200526828   -2.0246848422    5.7483766479
N       -0.4648586556   -1.6467850311    2.9246963340
O        1.0326039958   -2.1556918784    4.6454292560
F       -0.2797507416    0.2696626782    5.2964501108
F        1.2648130495   -0.1743114670    6.8139689712
F        0.8006607781   -2.7727124419    6.7156781734
F       -1.0305571454   -2.5205720363    5.5558224086
Cl       3.3674431216   -0.7348996492    3.5370406386
Br      -0.1394323429    0.3591564900   -0.6800715867
H        2.3413664251    0.2286839917    1.0254006871
H       -1.7269400000   -1.1936802587    1.3457396373
H       -0.6871769320   -0.5492449617    7.0822674501
18   
torsion grid (180,)
C        1.5728958950   -0.2346449174    1.5932832113
C       -0.7074089101   -1.0133872551    1.7059702425
C        1.7890743436   -0.8434153046    2.8283500416
C        0.2988328216   -0.3206403853    1.0306658084
C        0.7127772442   -1.5156348888    3.4314349004
C        0.0438696249   -0.5273050173    6.2259428442
C        0.1551274321   -1.9871414185    5.7220529383
N       -0.4833379928   -1.6066024366    2.8828802281
O        0.9642410220   -2.1735585471    4.6243986797
F       -0.5883490961    0.2445134319    5.2968875073
F        1.2932222274   -0.0269519720    6.4189008753
F        0.7228323826   -2.7110349627    6.7169456481
F       -1.1028763381   -2.4629740976    5.5374518861
Cl       3.3477613893   -0.7566100724    3.5914999669
Br      -0.0669903285    0.4999464141   -0.6534883203
H        2.3773424530    0.2962084086    1.0957856988
H       -1.7079887151   -1.1005476033    1.2909952558
H       -0.5144324124   -0.4884265408    7.1650648194
