
  -OEChem-12102412493D

 25 26  0     1  0  0  0  0  0999 V2000
    2.9090   -4.8338    4.9394 C   0  0  0  0  0  0  0  0  0  0  0  0
    2.7333   -4.4570    6.2715 C   0  0  0  0  0  0  0  0  0  0  0  0
    3.5360   -3.9516    4.0498 C   0  0  0  0  0  0  0  0  0  0  0  0
    3.1797   -3.2055    6.7164 C   0  0  0  0  0  0  0  0  0  0  0  0
    3.9799   -2.7077    4.4959 C   0  0  0  0  0  0  0  0  0  0  0  0
    7.6245    0.1396    5.2890 C   0  0  0  0  0  0  0  0  0  0  0  0
    6.2730    0.3948    5.3781 C   0  0  0  0  0  0  0  0  0  0  0  0
    6.7343   -1.6449    6.0888 C   0  0  0  0  0  0  0  0  0  0  0  0
    3.8066   -2.3188    5.8348 C   0  0  0  0  0  0  0  0  0  0  0  0
    4.0988   -0.6038    7.7458 C   0  0  0  0  0  0  0  0  0  0  0  0
    4.2964   -0.9391    6.2637 C   0  0  1  0  0  0  0  0  0  0  0  0
    7.9018   -1.1370    5.7340 N   0  0  0  0  0  0  0  0  0  0  0  0
    5.7064   -0.7610    5.8858 N   0  0  0  0  0  0  0  0  0  0  0  0
    2.5648   -5.8054    4.5948 H   0  0  0  0  0  0  0  0  0  0  0  0
    2.2508   -5.1350    6.9708 H   0  0  0  0  0  0  0  0  0  0  0  0
    3.6817   -4.2370    3.0112 H   0  0  0  0  0  0  0  0  0  0  0  0
    3.0341   -2.9356    7.7573 H   0  0  0  0  0  0  0  0  0  0  0  0
    4.4819   -2.0334    3.8059 H   0  0  0  0  0  0  0  0  0  0  0  0
    8.4051    0.7953    4.9246 H   0  0  0  0  0  0  0  0  0  0  0  0
    5.6746    1.2606    5.1297 H   0  0  0  0  0  0  0  0  0  0  0  0
    6.5669   -2.6428    6.4725 H   0  0  0  0  0  0  0  0  0  0  0  0
    4.6319   -1.3119    8.3868 H   0  0  0  0  0  0  0  0  0  0  0  0
    3.0379   -0.6162    8.0123 H   0  0  0  0  0  0  0  0  0  0  0  0
    4.4917    0.3958    7.9490 H   0  0  0  0  0  0  0  0  0  0  0  0
    3.7439   -0.1987    5.6745 H   0  0  0  0  0  0  0  0  0  0  0  0
  1  2  1  0  0  0  0
  1  3  2  0  0  0  0
  1 14  1  0  0  0  0
  2  4  2  0  0  0  0
  2 15  1  0  0  0  0
  3  5  1  0  0  0  0
  3 16  1  0  0  0  0
  4  9  1  0  0  0  0
  4 17  1  0  0  0  0
  5  9  2  0  0  0  0
  5 18  1  0  0  0  0
  6  7  2  0  0  0  0
  6 12  1  0  0  0  0
  6 19  1  0  0  0  0
  7 13  1  0  0  0  0
  7 20  1  0  0  0  0
  8 12  2  0  0  0  0
  8 13  1  0  0  0  0
  8 21  1  0  0  0  0
  9 11  1  0  0  0  0
 10 11  1  0  0  0  0
 10 22  1  0  0  0  0
 10 23  1  0  0  0  0
 10 24  1  0  0  0  0
 11 13  1  0  0  0  0
 11 25  1  0  0  0  0
M  END
$$$$
