
  -OEChem-12122420533D

 32 33  0     1  0  0  0  0  0999 V2000
   -0.1604   -0.3552   -7.5314 C   0  0  0  0  0  0  0  0  0  0  0  0
   -0.0388   -1.6799   -7.0967 C   0  0  0  0  0  0  0  0  0  0  0  0
    0.5944    0.6446   -6.9096 C   0  0  0  0  0  0  0  0  0  0  0  0
    0.8192   -1.9996   -6.0414 C   0  0  0  0  0  0  0  0  0  0  0  0
    1.4584    0.3307   -5.8555 C   0  0  0  0  0  0  0  0  0  0  0  0
    1.5633   -0.9942   -5.4099 C   0  0  0  0  0  0  0  0  0  0  0  0
    0.4192   -0.1151   -0.7849 C   0  0  0  0  0  0  0  0  0  0  0  0
    0.3127   -1.5748   -1.2423 C   0  0  0  0  0  0  0  0  0  0  0  0
    1.8074    0.4547   -1.0984 C   0  0  0  0  0  0  0  0  0  0  0  0
    0.6618   -1.7119   -2.7309 C   0  0  0  0  0  0  0  0  0  0  0  0
    2.1757    0.3311   -2.5895 C   0  0  2  0  0  0  0  0  0  0  0  0
    2.0484   -1.1371   -3.0273 C   0  0  2  0  0  0  0  0  0  0  0  0
    3.5779    0.8865   -2.8591 C   0  0  0  0  0  0  0  0  0  0  0  0
    2.4470   -1.3509   -4.4099 O   0  0  0  0  0  0  0  0  0  0  0  0
   -0.8282   -0.1067   -8.3519 H   0  0  0  0  0  0  0  0  0  0  0  0
   -0.6118   -2.4668   -7.5809 H   0  0  0  0  0  0  0  0  0  0  0  0
    0.5196    1.6741   -7.2511 H   0  0  0  0  0  0  0  0  0  0  0  0
    0.9286   -3.0240   -5.6971 H   0  0  0  0  0  0  0  0  0  0  0  0
    2.0627    1.1032   -5.3925 H   0  0  0  0  0  0  0  0  0  0  0  0
   -0.3453    0.4829   -1.2993 H   0  0  0  0  0  0  0  0  0  0  0  0
    0.2119   -0.0354    0.2887 H   0  0  0  0  0  0  0  0  0  0  0  0
    0.9982   -2.1928   -0.6461 H   0  0  0  0  0  0  0  0  0  0  0  0
   -0.6962   -1.9630   -1.0616 H   0  0  0  0  0  0  0  0  0  0  0  0
    1.8653    1.5084   -0.8000 H   0  0  0  0  0  0  0  0  0  0  0  0
    2.5613   -0.0776   -0.5006 H   0  0  0  0  0  0  0  0  0  0  0  0
    0.6325   -2.7625   -3.0400 H   0  0  0  0  0  0  0  0  0  0  0  0
   -0.0875   -1.1812   -3.3301 H   0  0  0  0  0  0  0  0  0  0  0  0
    1.4419    0.9160   -3.1599 H   0  0  0  0  0  0  0  0  0  0  0  0
    2.7971   -1.7198   -2.4770 H   0  0  0  0  0  0  0  0  0  0  0  0
    4.3268    0.3522   -2.2619 H   0  0  0  0  0  0  0  0  0  0  0  0
    3.6342    1.9476   -2.5915 H   0  0  0  0  0  0  0  0  0  0  0  0
    3.8602    0.7789   -3.9093 H   0  0  0  0  0  0  0  0  0  0  0  0
  1  2  1  0  0  0  0
  1  3  2  0  0  0  0
  1 15  1  0  0  0  0
  2  4  2  0  0  0  0
  2 16  1  0  0  0  0
  3  5  1  0  0  0  0
  3 17  1  0  0  0  0
  4  6  1  0  0  0  0
  4 18  1  0  0  0  0
  5  6  2  0  0  0  0
  5 19  1  0  0  0  0
  6 14  1  0  0  0  0
  7  8  1  0  0  0  0
  7  9  1  0  0  0  0
  7 20  1  0  0  0  0
  7 21  1  0  0  0  0
  8 10  1  0  0  0  0
  8 22  1  0  0  0  0
  8 23  1  0  0  0  0
  9 11  1  0  0  0  0
  9 24  1  0  0  0  0
  9 25  1  0  0  0  0
 10 12  1  0  0  0  0
 10 26  1  0  0  0  0
 10 27  1  0  0  0  0
 11 12  1  0  0  0  0
 11 13  1  0  0  0  0
 11 28  1  0  0  0  0
 12 14  1  0  0  0  0
 12 29  1  0  0  0  0
 13 30  1  0  0  0  0
 13 31  1  0  0  0  0
 13 32  1  0  0  0  0
M  END
$$$$
