32
0 1 C13H18O
C                    -0.160388220238    -0.355213515312    -7.531385060654
C                    -0.038836442494    -1.679865329285    -7.096729546855
C                     0.594367302684     0.644644831645    -6.909554355045
C                     0.819213127841    -1.999624140818    -6.041374528404
C                     1.458370116639     0.330699000020    -5.855455809671
C                     1.563330389627    -0.994241924631    -5.409935964939
C                     0.419187002459    -0.115096567206    -0.784850661701
C                     0.312745006823    -1.574825018244    -1.242264891391
C                     1.807369297587     0.454725390322    -1.098388063771
C                     0.661840714986    -1.711869263180    -2.730879565286
C                     2.175718160749     0.331057914463    -2.589458215176
C                     2.048405833974    -1.137112400073    -3.027293157951
C                     3.577903347429     0.886545165159    -2.859069849972
O                     2.447043393063    -1.350872084378    -4.409948752749
H                    -0.828159672937    -0.106715109287    -8.351910585020
H                    -0.611776560860    -2.466835573261    -7.580931139706
H                     0.519576015155     1.674138801057    -7.251143869687
H                     0.928608763122    -3.023950250259    -5.697089866603
H                     2.062737762625     1.103216139056    -5.392535607524
H                    -0.345257363599     0.482869960735    -1.299318354613
H                     0.211922830830    -0.035448597073     0.288744407271
H                     0.998183755089    -2.192773145366    -0.646137058461
H                    -0.696153020418    -1.963006892918    -1.061557441036
H                     1.865343687909     1.508369896357    -0.800015679327
H                     2.561252371334    -0.077643557986    -0.500552819404
H                     0.632531668953    -2.762491775752    -3.039994056603
H                    -0.087468992344    -1.181200730587    -3.330111525275
H                     1.441921786068     0.916011858375    -3.159945681840
H                     2.797109860943    -1.719790739101    -2.476954944392
H                     4.326787522197     0.352194797454    -2.261874634857
H                     3.634247834900     1.947607428621    -2.591498457912
H                     3.860215621580     0.778914367627    -3.909344867744
