33
1 1 C12H19N2
C                    -0.846387779929    -3.373435533393    -0.964302279283
C                    -1.517765024974    -4.260729595432    -1.807172443664
C                    -0.760881452942    -3.652235023384     0.405971135005
C                    -2.099137815031    -5.424845596351    -1.288133691548
C                    -1.339452604216    -4.813349742834     0.918749858305
C                    -2.014680470736    -5.714757008709     0.078976608298
C                    -1.931828909396    -8.824406381089     2.208251446484
C                    -0.485552042510    -8.227840024296     0.389703058067
C                    -0.759384579949    -9.255290337780     3.083037717219
C                     0.762420670694    -8.621668325643     1.166257660467
C                    -3.501118374176    -7.794331322181    -0.244173287221
C                    -2.609471850745    -6.974139063039     0.697394300817
N                    -1.505048838392    -7.761654142579     1.316103024928
N                     0.390364000403    -9.687130115516     2.187498502725
H                    -0.400817721571    -2.468011928909    -1.366705161773
H                    -1.596585959920    -4.048240354483    -2.869771088488
H                    -0.252084962780    -2.959753556164     1.071208887219
H                    -2.623198697006    -6.093417170285    -1.963700813577
H                    -1.272975002882    -5.026698208820     1.983161829385
H                    -2.338416943317    -9.709932768990     1.682730426998
H                    -2.720855440761    -8.456374960752     2.870308690200
H                    -0.213226559432    -7.416404933601    -0.289311648199
H                    -0.815998027030    -9.080591170767    -0.234013603370
H                    -0.388354619282    -8.421399818529     3.680691178630
H                    -1.004515016450   -10.101051582475     3.729115179742
H                     1.541179687768    -9.043549072943     0.527339478761
H                     1.155905292610    -7.774731582568     1.730185367050
H                    -2.953796629471    -8.178848438292    -1.109955777053
H                    -3.945389365982    -8.645871229643     0.279799587293
H                    -4.324760836981    -7.179901747251    -0.616815656140
H                    -3.226792521865    -6.657348078390     1.546631784694
H                     0.115428059686   -10.540694983075     1.686009431249
H                     1.207607747629    -9.933796695250     2.756625745828
