
  -OEChem-12122420533D

 33 34  0     1  0  0  0  0  0999 V2000
    4.2819    3.8515    1.2611 C   0  0  0  0  0  0  0  0  0  0  0  0
    4.4461    2.5472    0.7771 C   0  0  0  0  0  0  0  0  0  0  0  0
    3.0782    4.5261    1.0422 C   0  0  0  0  0  0  0  0  0  0  0  0
    3.4102    1.9238    0.0792 C   0  0  0  0  0  0  0  0  0  0  0  0
    2.0391    3.8968    0.3462 C   0  0  0  0  0  0  0  0  0  0  0  0
    2.1968    2.5942   -0.1408 C   0  0  0  0  0  0  0  0  0  0  0  0
    0.2008    0.9002    1.1218 C   0  0  0  0  0  0  0  0  0  0  0  0
    0.0598   -0.4044    1.8840 C   0  0  0  0  0  0  0  0  0  0  0  0
   -0.5249   -1.4747   -0.3121 C   0  0  0  0  0  0  0  0  0  0  0  0
   -0.3364   -0.1174   -0.9962 C   0  0  2  0  0  0  0  0  0  0  0  0
    0.0705   -0.3848   -2.4498 C   0  0  0  0  0  0  0  0  0  0  0  0
    1.0828    1.9098   -0.9011 C   0  0  0  0  0  0  0  0  0  0  0  0
    0.6595    0.6523   -0.2409 N   0  0  1  0  0  0  0  0  0  0  0  0
   -0.9200   -1.2924    1.1404 N   0  3  0  0  0  0  0  0  0  0  0  0
    5.0900    4.3387    1.7994 H   0  0  0  0  0  0  0  0  0  0  0  0
    5.3847    2.0233    0.9368 H   0  0  0  0  0  0  0  0  0  0  0  0
    2.9466    5.5398    1.4101 H   0  0  0  0  0  0  0  0  0  0  0  0
    3.5395    0.9127   -0.2999 H   0  0  0  0  0  0  0  0  0  0  0  0
    1.1048    4.4282    0.1774 H   0  0  0  0  0  0  0  0  0  0  0  0
   -0.7564    1.4589    1.1523 H   0  0  0  0  0  0  0  0  0  0  0  0
    0.9401    1.5101    1.6448 H   0  0  0  0  0  0  0  0  0  0  0  0
    1.0071   -0.9447    1.9192 H   0  0  0  0  0  0  0  0  0  0  0  0
   -0.3273   -0.2594    2.8946 H   0  0  0  0  0  0  0  0  0  0  0  0
   -1.3125   -2.0623   -0.7878 H   0  0  0  0  0  0  0  0  0  0  0  0
    0.4101   -2.0385   -0.3119 H   0  0  0  0  0  0  0  0  0  0  0  0
   -1.3172    0.4023   -1.0009 H   0  0  0  0  0  0  0  0  0  0  0  0
    1.0926   -0.7716   -2.4994 H   0  0  0  0  0  0  0  0  0  0  0  0
    0.0092    0.5197   -3.0555 H   0  0  0  0  0  0  0  0  0  0  0  0
   -0.6023   -1.1192   -2.9029 H   0  0  0  0  0  0  0  0  0  0  0  0
    0.2306    2.5991   -1.0224 H   0  0  0  0  0  0  0  0  0  0  0  0
    1.4393    1.6543   -1.8997 H   0  0  0  0  0  0  0  0  0  0  0  0
   -1.0024   -2.2049    1.6026 H   0  0  0  0  0  0  0  0  0  0  0  0
   -1.8508   -0.8596    1.1786 H   0  0  0  0  0  0  0  0  0  0  0  0
  1  2  1  0  0  0  0
  1  3  2  0  0  0  0
  1 15  1  0  0  0  0
  2  4  2  0  0  0  0
  2 16  1  0  0  0  0
  3  5  1  0  0  0  0
  3 17  1  0  0  0  0
  4  6  1  0  0  0  0
  4 18  1  0  0  0  0
  5  6  2  0  0  0  0
  5 19  1  0  0  0  0
  6 12  1  0  0  0  0
  7  8  1  0  0  0  0
  7 13  1  0  0  0  0
  7 20  1  0  0  0  0
  7 21  1  0  0  0  0
  8 14  1  0  0  0  0
  8 22  1  0  0  0  0
  8 23  1  0  0  0  0
  9 10  1  0  0  0  0
  9 14  1  0  0  0  0
  9 24  1  0  0  0  0
  9 25  1  0  0  0  0
 10 11  1  0  0  0  0
 10 13  1  0  0  0  0
 10 26  1  0  0  0  0
 11 27  1  0  0  0  0
 11 28  1  0  0  0  0
 11 29  1  0  0  0  0
 12 13  1  0  0  0  0
 12 30  1  0  0  0  0
 12 31  1  0  0  0  0
 14 32  1  0  0  0  0
 14 33  1  0  0  0  0
M  CHG  1  14   1
M  END
$$$$
