
  -OEChem-12122420533D

 31 32  0     1  0  0  0  0  0999 V2000
    8.9713    1.6823   47.3064 C   0  0  0  0  0  0  0  0  0  0  0  0
    9.3023    0.3477   47.2628 C   0  0  0  0  0  0  0  0  0  0  0  0
   11.1266    1.6278   47.1233 C   0  0  0  0  0  0  0  0  0  0  0  0
   13.7221    4.2299   44.1376 C   0  0  0  0  0  0  0  0  0  0  0  0
   12.2811    3.7304   44.3105 C   0  0  0  0  0  0  0  0  0  0  0  0
   14.6453    3.6928   45.2408 C   0  0  0  0  0  0  0  0  0  0  0  0
   12.2372    2.1999   44.4144 C   0  0  0  0  0  0  0  0  0  0  0  0
   14.5829    2.1589   45.3575 C   0  0  2  0  0  0  0  0  0  0  0  0
   13.1288    1.6613   45.5502 C   0  0  1  0  0  0  0  0  0  0  0  0
   15.5532    1.6357   46.4238 C   0  0  0  0  0  0  0  0  0  0  0  0
   12.5638    2.0031   46.9534 C   0  0  0  0  0  0  0  0  0  0  0  0
   10.1069    2.4662   47.2175 N   0  0  0  0  0  0  0  0  0  0  0  0
   10.6839    0.3268   47.1468 N   0  0  0  0  0  0  0  0  0  0  0  0
    7.9865    2.1221   47.3985 H   0  0  0  0  0  0  0  0  0  0  0  0
    8.7117   -0.5561   47.3109 H   0  0  0  0  0  0  0  0  0  0  0  0
   14.1024    3.8978   43.1613 H   0  0  0  0  0  0  0  0  0  0  0  0
   13.7483    5.3260   44.1265 H   0  0  0  0  0  0  0  0  0  0  0  0
   11.8329    4.1721   45.2082 H   0  0  0  0  0  0  0  0  0  0  0  0
   11.6643    4.0596   43.4661 H   0  0  0  0  0  0  0  0  0  0  0  0
   15.6812    3.9968   45.0451 H   0  0  0  0  0  0  0  0  0  0  0  0
   14.3725    4.1476   46.2023 H   0  0  0  0  0  0  0  0  0  0  0  0
   11.2047    1.8626   44.5518 H   0  0  0  0  0  0  0  0  0  0  0  0
   12.5881    1.7666   43.4677 H   0  0  0  0  0  0  0  0  0  0  0  0
   14.9107    1.7511   44.3896 H   0  0  0  0  0  0  0  0  0  0  0  0
   13.1478    0.5641   45.4688 H   0  0  0  0  0  0  0  0  0  0  0  0
   15.3658    2.0893   47.4030 H   0  0  0  0  0  0  0  0  0  0  0  0
   16.5884    1.8691   46.1514 H   0  0  0  0  0  0  0  0  0  0  0  0
   15.4762    0.5474   46.5370 H   0  0  0  0  0  0  0  0  0  0  0  0
   12.6276    3.0741   47.1520 H   0  0  0  0  0  0  0  0  0  0  0  0
   13.1682    1.5026   47.7184 H   0  0  0  0  0  0  0  0  0  0  0  0
   11.2632   -0.4994   47.0814 H   0  0  0  0  0  0  0  0  0  0  0  0
  1  2  2  0  0  0  0
  1 12  1  0  0  0  0
  1 14  1  0  0  0  0
  2 13  1  0  0  0  0
  2 15  1  0  0  0  0
  3 11  1  0  0  0  0
  3 12  2  0  0  0  0
  3 13  1  0  0  0  0
  4  5  1  0  0  0  0
  4  6  1  0  0  0  0
  4 16  1  0  0  0  0
  4 17  1  0  0  0  0
  5  7  1  0  0  0  0
  5 18  1  0  0  0  0
  5 19  1  0  0  0  0
  6  8  1  0  0  0  0
  6 20  1  0  0  0  0
  6 21  1  0  0  0  0
  7  9  1  0  0  0  0
  7 22  1  0  0  0  0
  7 23  1  0  0  0  0
  8  9  1  0  0  0  0
  8 10  1  0  0  0  0
  8 24  1  0  0  0  0
  9 11  1  0  0  0  0
  9 25  1  0  0  0  0
 10 26  1  0  0  0  0
 10 27  1  0  0  0  0
 10 28  1  0  0  0  0
 11 29  1  0  0  0  0
 11 30  1  0  0  0  0
 13 31  1  0  0  0  0
M  END
$$$$
