
  -OEChem-12122420533D

 33 34  0     1  0  0  0  0  0999 V2000
   -2.0626   -3.3921    3.5879 C   0  0  0  0  0  0  0  0  0  0  0  0
   -2.5613   -3.7760    4.8383 C   0  0  0  0  0  0  0  0  0  0  0  0
   -2.9375   -3.2521    2.5069 C   0  0  0  0  0  0  0  0  0  0  0  0
   -3.9269   -4.0163    5.0065 C   0  0  0  0  0  0  0  0  0  0  0  0
   -4.3051   -3.4906    2.6787 C   0  0  0  0  0  0  0  0  0  0  0  0
   -4.8081   -3.8724    3.9273 C   0  0  0  0  0  0  0  0  0  0  0  0
   -7.8481   -4.5887    5.9593 C   0  0  0  0  0  0  0  0  0  0  0  0
   -9.2226   -4.4797    5.2836 C   0  0  0  0  0  0  0  0  0  0  0  0
   -8.6159   -2.0805    4.7520 C   0  0  0  0  0  0  0  0  0  0  0  0
   -7.2659   -2.3108    5.4594 C   0  0  2  0  0  0  0  0  0  0  0  0
   -6.2379   -1.3062    4.9381 C   0  0  0  0  0  0  0  0  0  0  0  0
   -6.2864   -4.1723    4.0926 C   0  0  0  0  0  0  0  0  0  0  0  0
   -6.8441   -3.7129    5.3796 N   0  0  2  0  0  0  0  0  0  0  0  0
   -9.6596   -3.0254    5.3325 N   0  3  0  0  0  0  0  0  0  0  0  0
   -1.0006   -3.2036    3.4582 H   0  0  0  0  0  0  0  0  0  0  0  0
   -1.8847   -3.8884    5.6812 H   0  0  0  0  0  0  0  0  0  0  0  0
   -2.5582   -2.9539    1.5334 H   0  0  0  0  0  0  0  0  0  0  0  0
   -4.3163   -4.3017    5.9800 H   0  0  0  0  0  0  0  0  0  0  0  0
   -4.9803   -3.3753    1.8325 H   0  0  0  0  0  0  0  0  0  0  0  0
   -7.9555   -4.3531    7.0274 H   0  0  0  0  0  0  0  0  0  0  0  0
   -7.5188   -5.6286    5.9019 H   0  0  0  0  0  0  0  0  0  0  0  0
   -9.1842   -4.7563    4.2282 H   0  0  0  0  0  0  0  0  0  0  0  0
   -9.9924   -5.0704    5.7861 H   0  0  0  0  0  0  0  0  0  0  0  0
   -8.9912   -1.0643    4.8924 H   0  0  0  0  0  0  0  0  0  0  0  0
   -8.5613   -2.2982    3.6834 H   0  0  0  0  0  0  0  0  0  0  0  0
   -7.4199   -2.0970    6.5282 H   0  0  0  0  0  0  0  0  0  0  0  0
   -6.0797   -1.3967    3.8612 H   0  0  0  0  0  0  0  0  0  0  0  0
   -5.2783   -1.4647    5.4310 H   0  0  0  0  0  0  0  0  0  0  0  0
   -6.5754   -0.2873    5.1517 H   0  0  0  0  0  0  0  0  0  0  0  0
   -6.8340   -3.7715    3.2243 H   0  0  0  0  0  0  0  0  0  0  0  0
   -6.4283   -5.2580    4.0569 H   0  0  0  0  0  0  0  0  0  0  0  0
  -10.5549   -2.9061    4.8459 H   0  0  0  0  0  0  0  0  0  0  0  0
   -9.8269   -2.7657    6.3124 H   0  0  0  0  0  0  0  0  0  0  0  0
  1  2  1  0  0  0  0
  1  3  2  0  0  0  0
  1 15  1  0  0  0  0
  2  4  2  0  0  0  0
  2 16  1  0  0  0  0
  3  5  1  0  0  0  0
  3 17  1  0  0  0  0
  4  6  1  0  0  0  0
  4 18  1  0  0  0  0
  5  6  2  0  0  0  0
  5 19  1  0  0  0  0
  6 12  1  0  0  0  0
  7  8  1  0  0  0  0
  7 13  1  0  0  0  0
  7 20  1  0  0  0  0
  7 21  1  0  0  0  0
  8 14  1  0  0  0  0
  8 22  1  0  0  0  0
  8 23  1  0  0  0  0
  9 10  1  0  0  0  0
  9 14  1  0  0  0  0
  9 24  1  0  0  0  0
  9 25  1  0  0  0  0
 10 11  1  0  0  0  0
 10 13  1  0  0  0  0
 10 26  1  0  0  0  0
 11 27  1  0  0  0  0
 11 28  1  0  0  0  0
 11 29  1  0  0  0  0
 12 13  1  0  0  0  0
 12 30  1  0  0  0  0
 12 31  1  0  0  0  0
 14 32  1  0  0  0  0
 14 33  1  0  0  0  0
M  CHG  1  14   1
M  END
$$$$
