
  -OEChem-12122420533D

 32 33  0     1  0  0  0  0  0999 V2000
    4.7705   -5.0149   -5.3366 C   0  0  0  0  0  0  0  0  0  0  0  0
    4.1813   -4.1783   -6.2947 C   0  0  0  0  0  0  0  0  0  0  0  0
    4.5943   -4.7217   -3.9834 C   0  0  0  0  0  0  0  0  0  0  0  0
    3.4326   -3.0707   -5.9036 C   0  0  0  0  0  0  0  0  0  0  0  0
    3.8428   -3.6124   -3.5750 C   0  0  0  0  0  0  0  0  0  0  0  0
    3.2595   -2.7772   -4.5402 C   0  0  0  0  0  0  0  0  0  0  0  0
    0.4147   -0.1360   -0.8996 C   0  0  0  0  0  0  0  0  0  0  0  0
    0.7386   -1.6353   -0.9200 C   0  0  0  0  0  0  0  0  0  0  0  0
    1.5630    0.6842   -1.5010 C   0  0  0  0  0  0  0  0  0  0  0  0
    1.0994   -2.0982   -2.3375 C   0  0  0  0  0  0  0  0  0  0  0  0
    1.9414    0.2274   -2.9215 C   0  0  2  0  0  0  0  0  0  0  0  0
    2.2554   -1.2738   -2.9117 C   0  0  2  0  0  0  0  0  0  0  0  0
    3.1084    1.0464   -3.4826 C   0  0  0  0  0  0  0  0  0  0  0  0
    2.5220   -1.6566   -4.2732 O   0  0  0  0  0  0  0  0  0  0  0  0
    5.3536   -5.8790   -5.6421 H   0  0  0  0  0  0  0  0  0  0  0  0
    4.3069   -4.3899   -7.3538 H   0  0  0  0  0  0  0  0  0  0  0  0
    5.0416   -5.3613   -3.2264 H   0  0  0  0  0  0  0  0  0  0  0  0
    2.9731   -2.4127   -6.6358 H   0  0  0  0  0  0  0  0  0  0  0  0
    3.7219   -3.4182   -2.5158 H   0  0  0  0  0  0  0  0  0  0  0  0
   -0.5016    0.0429   -1.4782 H   0  0  0  0  0  0  0  0  0  0  0  0
    0.2103    0.1966    0.1248 H   0  0  0  0  0  0  0  0  0  0  0  0
    1.5808   -1.8351   -0.2430 H   0  0  0  0  0  0  0  0  0  0  0  0
   -0.1093   -2.2180   -0.5425 H   0  0  0  0  0  0  0  0  0  0  0  0
    1.2995    1.7481   -1.5251 H   0  0  0  0  0  0  0  0  0  0  0  0
    2.4474    0.6005   -0.8529 H   0  0  0  0  0  0  0  0  0  0  0  0
    1.3541   -3.1626   -2.3461 H   0  0  0  0  0  0  0  0  0  0  0  0
    0.2359   -1.9742   -3.0028 H   0  0  0  0  0  0  0  0  0  0  0  0
    1.0685    0.3679   -3.5745 H   0  0  0  0  0  0  0  0  0  0  0  0
    3.1633   -1.4239   -2.3107 H   0  0  0  0  0  0  0  0  0  0  0  0
    4.0042    0.9248   -2.8611 H   0  0  0  0  0  0  0  0  0  0  0  0
    2.8589    2.1130   -3.5011 H   0  0  0  0  0  0  0  0  0  0  0  0
    3.3582    0.7339   -4.4995 H   0  0  0  0  0  0  0  0  0  0  0  0
  1  2  1  0  0  0  0
  1  3  2  0  0  0  0
  1 15  1  0  0  0  0
  2  4  2  0  0  0  0
  2 16  1  0  0  0  0
  3  5  1  0  0  0  0
  3 17  1  0  0  0  0
  4  6  1  0  0  0  0
  4 18  1  0  0  0  0
  5  6  2  0  0  0  0
  5 19  1  0  0  0  0
  6 14  1  0  0  0  0
  7  8  1  0  0  0  0
  7  9  1  0  0  0  0
  7 20  1  0  0  0  0
  7 21  1  0  0  0  0
  8 10  1  0  0  0  0
  8 22  1  0  0  0  0
  8 23  1  0  0  0  0
  9 11  1  0  0  0  0
  9 24  1  0  0  0  0
  9 25  1  0  0  0  0
 10 12  1  0  0  0  0
 10 26  1  0  0  0  0
 10 27  1  0  0  0  0
 11 12  1  0  0  0  0
 11 13  1  0  0  0  0
 11 28  1  0  0  0  0
 12 14  1  0  0  0  0
 12 29  1  0  0  0  0
 13 30  1  0  0  0  0
 13 31  1  0  0  0  0
 13 32  1  0  0  0  0
M  END
$$$$
