
  -OEChem-12102412493D

 33 34  0     1  0  0  0  0  0999 V2000
   -1.6274    3.3217    1.8340 C   0  0  0  0  0  0  0  0  0  0  0  0
   -1.6069    4.6579    2.2545 C   0  0  0  0  0  0  0  0  0  0  0  0
   -2.7687    2.5445    2.0465 C   0  0  0  0  0  0  0  0  0  0  0  0
   -2.7223    5.2120    2.8845 C   0  0  0  0  0  0  0  0  0  0  0  0
   -3.8847    3.1011    2.6826 C   0  0  0  0  0  0  0  0  0  0  0  0
   -3.8710    4.4360    3.1038 C   0  0  0  0  0  0  0  0  0  0  0  0
   -5.7838    6.4446    5.6819 C   0  0  0  0  0  0  0  0  0  0  0  0
   -6.8754    5.6117    6.3710 C   0  0  0  0  0  0  0  0  0  0  0  0
   -5.1338    3.8249    6.7363 C   0  0  0  0  0  0  0  0  0  0  0  0
   -4.0956    4.7276    6.0448 C   0  0  2  0  0  0  0  0  0  0  0  0
   -3.1987    5.4650    7.0485 C   0  0  0  0  0  0  0  0  0  0  0  0
   -5.0758    5.0428    3.7873 C   0  0  0  0  0  0  0  0  0  0  0  0
   -4.7232    5.6462    5.0889 N   0  0  1  0  0  0  0  0  0  0  0  0
   -6.2092    4.6895    7.3787 N   0  3  0  0  0  0  0  0  0  0  0  0
   -0.7601    2.8927    1.3402 H   0  0  0  0  0  0  0  0  0  0  0  0
   -0.7234    5.2670    2.0839 H   0  0  0  0  0  0  0  0  0  0  0  0
   -2.7926    1.5093    1.7178 H   0  0  0  0  0  0  0  0  0  0  0  0
   -2.7070    6.2484    3.2122 H   0  0  0  0  0  0  0  0  0  0  0  0
   -4.7734    2.4921    2.8386 H   0  0  0  0  0  0  0  0  0  0  0  0
   -6.2595    7.0532    4.9090 H   0  0  0  0  0  0  0  0  0  0  0  0
   -5.3581    7.1467    6.4087 H   0  0  0  0  0  0  0  0  0  0  0  0
   -7.5955    6.2286    6.9135 H   0  0  0  0  0  0  0  0  0  0  0  0
   -7.4090    4.9647    5.6723 H   0  0  0  0  0  0  0  0  0  0  0  0
   -5.6507    3.1788    6.0239 H   0  0  0  0  0  0  0  0  0  0  0  0
   -4.6969    3.2105    7.5265 H   0  0  0  0  0  0  0  0  0  0  0  0
   -3.4558    4.0543    5.4695 H   0  0  0  0  0  0  0  0  0  0  0  0
   -3.7410    6.1592    7.7020 H   0  0  0  0  0  0  0  0  0  0  0  0
   -2.4634    6.0554    6.4989 H   0  0  0  0  0  0  0  0  0  0  0  0
   -2.6642    4.7542    7.6857 H   0  0  0  0  0  0  0  0  0  0  0  0
   -5.4854    5.8518    3.1725 H   0  0  0  0  0  0  0  0  0  0  0  0
   -5.8673    4.2769    3.8638 H   0  0  0  0  0  0  0  0  0  0  0  0
   -5.7794    5.2567    8.1192 H   0  0  0  0  0  0  0  0  0  0  0  0
   -6.9107    4.0982    7.8370 H   0  0  0  0  0  0  0  0  0  0  0  0
  1  2  1  0  0  0  0
  1  3  2  0  0  0  0
  1 15  1  0  0  0  0
  2  4  2  0  0  0  0
  2 16  1  0  0  0  0
  3  5  1  0  0  0  0
  3 17  1  0  0  0  0
  4  6  1  0  0  0  0
  4 18  1  0  0  0  0
  5  6  2  0  0  0  0
  5 19  1  0  0  0  0
  6 12  1  0  0  0  0
  7  8  1  0  0  0  0
  7 13  1  0  0  0  0
  7 20  1  0  0  0  0
  7 21  1  0  0  0  0
  8 14  1  0  0  0  0
  8 22  1  0  0  0  0
  8 23  1  0  0  0  0
  9 10  1  0  0  0  0
  9 14  1  0  0  0  0
  9 24  1  0  0  0  0
  9 25  1  0  0  0  0
 10 11  1  0  0  0  0
 10 13  1  0  0  0  0
 10 26  1  0  0  0  0
 11 27  1  0  0  0  0
 11 28  1  0  0  0  0
 11 29  1  0  0  0  0
 12 13  1  0  0  0  0
 12 30  1  0  0  0  0
 12 31  1  0  0  0  0
 14 32  1  0  0  0  0
 14 33  1  0  0  0  0
M  CHG  1  14   1
M  END
$$$$
