
  -OEChem-12102412493D

 30 31  0     1  0  0  0  0  0999 V2000
    2.0721   -1.0402   -0.0996 C   0  0  0  0  0  0  0  0  0  0  0  0
    0.2028    3.7521    5.0469 C   0  0  0  0  0  0  0  0  0  0  0  0
    0.8155   -0.9572    0.5092 C   0  0  0  0  0  0  0  0  0  0  0  0
    3.2196   -1.1256    0.6965 C   0  0  0  0  0  0  0  0  0  0  0  0
    1.1753    3.1894    4.2166 C   0  0  0  0  0  0  0  0  0  0  0  0
   -0.6384    2.8993    5.7736 C   0  0  0  0  0  0  0  0  0  0  0  0
    0.7047   -0.9640    1.9028 C   0  0  0  0  0  0  0  0  0  0  0  0
    3.1047   -1.1300    2.0894 C   0  0  0  0  0  0  0  0  0  0  0  0
    1.3181    1.8029    4.1047 C   0  0  0  0  0  0  0  0  0  0  0  0
   -0.5080    1.5162    5.6693 C   0  0  0  0  0  0  0  0  0  0  0  0
    1.8482   -1.0534    2.7046 C   0  0  0  0  0  0  0  0  0  0  0  0
    0.4736    0.9439    4.8337 C   0  0  0  0  0  0  0  0  0  0  0  0
    1.7292   -2.5778    4.6927 C   0  0  0  0  0  0  0  0  0  0  0  0
    1.7482   -1.1150    4.2249 C   0  0  2  0  0  0  0  0  0  0  0  0
    0.5499   -0.4505    4.7305 N   0  0  0  0  0  0  0  0  0  0  0  0
    2.1579   -1.0295   -1.1832 H   0  0  0  0  0  0  0  0  0  0  0  0
    0.0997    4.8306    5.1274 H   0  0  0  0  0  0  0  0  0  0  0  0
   -0.0799   -0.8785   -0.1027 H   0  0  0  0  0  0  0  0  0  0  0  0
    4.2017   -1.1818    0.2334 H   0  0  0  0  0  0  0  0  0  0  0  0
    1.8363    3.8337    3.6417 H   0  0  0  0  0  0  0  0  0  0  0  0
   -1.4021    3.3139    6.4273 H   0  0  0  0  0  0  0  0  0  0  0  0
   -0.2664   -0.8778    2.3811 H   0  0  0  0  0  0  0  0  0  0  0  0
    4.0017   -1.1850    2.7045 H   0  0  0  0  0  0  0  0  0  0  0  0
    2.0706    1.3974    3.4384 H   0  0  0  0  0  0  0  0  0  0  0  0
   -1.1713    0.8644    6.2358 H   0  0  0  0  0  0  0  0  0  0  0  0
    0.8338   -3.0845    4.3176 H   0  0  0  0  0  0  0  0  0  0  0  0
    2.6033   -3.1106    4.3110 H   0  0  0  0  0  0  0  0  0  0  0  0
    1.7409   -2.6392    5.7875 H   0  0  0  0  0  0  0  0  0  0  0  0
    2.6490   -0.6353    4.6404 H   0  0  0  0  0  0  0  0  0  0  0  0
    0.1330   -0.9260    5.5213 H   0  0  0  0  0  0  0  0  0  0  0  0
  1  3  1  0  0  0  0
  1  4  2  0  0  0  0
  1 16  1  0  0  0  0
  2  5  1  0  0  0  0
  2  6  2  0  0  0  0
  2 17  1  0  0  0  0
  3  7  2  0  0  0  0
  3 18  1  0  0  0  0
  4  8  1  0  0  0  0
  4 19  1  0  0  0  0
  5  9  2  0  0  0  0
  5 20  1  0  0  0  0
  6 10  1  0  0  0  0
  6 21  1  0  0  0  0
  7 11  1  0  0  0  0
  7 22  1  0  0  0  0
  8 11  2  0  0  0  0
  8 23  1  0  0  0  0
  9 12  1  0  0  0  0
  9 24  1  0  0  0  0
 10 12  2  0  0  0  0
 10 25  1  0  0  0  0
 11 14  1  0  0  0  0
 12 15  1  0  0  0  0
 13 14  1  0  0  0  0
 13 26  1  0  0  0  0
 13 27  1  0  0  0  0
 13 28  1  0  0  0  0
 14 15  1  0  0  0  0
 14 29  1  0  0  0  0
 15 30  1  0  0  0  0
M  END
$$$$
