
  -OEChem-12122420533D

 30 31  0     1  0  0  0  0  0999 V2000
    1.7791   -1.1330    0.1120 C   0  0  0  0  0  0  0  0  0  0  0  0
   -3.2195   -1.6529    5.2427 C   0  0  0  0  0  0  0  0  0  0  0  0
    2.1727   -2.3483    0.6768 C   0  0  0  0  0  0  0  0  0  0  0  0
    1.4265   -0.0699    0.9517 C   0  0  0  0  0  0  0  0  0  0  0  0
   -2.4334   -2.1297    4.1897 C   0  0  0  0  0  0  0  0  0  0  0  0
   -2.6086   -0.8878    6.2433 C   0  0  0  0  0  0  0  0  0  0  0  0
    2.2143   -2.4998    2.0680 C   0  0  0  0  0  0  0  0  0  0  0  0
    1.4695   -0.2239    2.3381 C   0  0  0  0  0  0  0  0  0  0  0  0
   -1.0648   -1.8557    4.1240 C   0  0  0  0  0  0  0  0  0  0  0  0
   -1.2433   -0.6113    6.1907 C   0  0  0  0  0  0  0  0  0  0  0  0
    1.8628   -1.4410    2.9161 C   0  0  0  0  0  0  0  0  0  0  0  0
   -0.4455   -1.0889    5.1307 C   0  0  0  0  0  0  0  0  0  0  0  0
    1.9756   -3.0029    4.9721 C   0  0  0  0  0  0  0  0  0  0  0  0
    1.9374   -1.5597    4.4401 C   0  0  2  0  0  0  0  0  0  0  0  0
    0.9118   -0.7328    5.0947 N   0  0  0  0  0  0  0  0  0  0  0  0
    1.7415   -1.0162   -0.9680 H   0  0  0  0  0  0  0  0  0  0  0  0
   -4.2829   -1.8711    5.2839 H   0  0  0  0  0  0  0  0  0  0  0  0
    2.4448   -3.1841    0.0369 H   0  0  0  0  0  0  0  0  0  0  0  0
    1.1100    0.8786    0.5248 H   0  0  0  0  0  0  0  0  0  0  0  0
   -2.8875   -2.7231    3.3996 H   0  0  0  0  0  0  0  0  0  0  0  0
   -3.1969   -0.5057    7.0743 H   0  0  0  0  0  0  0  0  0  0  0  0
    2.5136   -3.4581    2.4802 H   0  0  0  0  0  0  0  0  0  0  0  0
    1.1716    0.5915    2.9900 H   0  0  0  0  0  0  0  0  0  0  0  0
   -0.4893   -2.2249    3.2840 H   0  0  0  0  0  0  0  0  0  0  0  0
   -0.7824   -0.0152    6.9771 H   0  0  0  0  0  0  0  0  0  0  0  0
    1.0991   -3.5768    4.6613 H   0  0  0  0  0  0  0  0  0  0  0  0
    2.8728   -3.5283    4.6323 H   0  0  0  0  0  0  0  0  0  0  0  0
    1.9969   -2.9859    6.0662 H   0  0  0  0  0  0  0  0  0  0  0  0
    2.8845   -1.0877    4.7311 H   0  0  0  0  0  0  0  0  0  0  0  0
    1.2300   -0.3806    5.9896 H   0  0  0  0  0  0  0  0  0  0  0  0
  1  3  1  0  0  0  0
  1  4  2  0  0  0  0
  1 16  1  0  0  0  0
  2  5  1  0  0  0  0
  2  6  2  0  0  0  0
  2 17  1  0  0  0  0
  3  7  2  0  0  0  0
  3 18  1  0  0  0  0
  4  8  1  0  0  0  0
  4 19  1  0  0  0  0
  5  9  2  0  0  0  0
  5 20  1  0  0  0  0
  6 10  1  0  0  0  0
  6 21  1  0  0  0  0
  7 11  1  0  0  0  0
  7 22  1  0  0  0  0
  8 11  2  0  0  0  0
  8 23  1  0  0  0  0
  9 12  1  0  0  0  0
  9 24  1  0  0  0  0
 10 12  2  0  0  0  0
 10 25  1  0  0  0  0
 11 14  1  0  0  0  0
 12 15  1  0  0  0  0
 13 14  1  0  0  0  0
 13 26  1  0  0  0  0
 13 27  1  0  0  0  0
 13 28  1  0  0  0  0
 14 15  1  0  0  0  0
 14 29  1  0  0  0  0
 15 30  1  0  0  0  0
M  END
$$$$
