
  -OEChem-12102412493D

 25 25  0     1  0  0  0  0  0999 V2000
    8.6279   -2.7393    3.2567 C   0  0  0  0  0  0  0  0  0  0  0  0
    8.1586   -1.7270    4.0606 C   0  0  0  0  0  0  0  0  0  0  0  0
    7.4332   -1.4748    1.9830 C   0  0  0  0  0  0  0  0  0  0  0  0
    7.9642    1.2025    0.5966 C   0  0  0  0  0  0  0  0  0  0  0  0
    7.8486    2.6652    0.1902 C   0  0  0  0  0  0  0  0  0  0  0  0
    7.1082   -1.6813   -0.4954 C   0  0  0  0  0  0  0  0  0  0  0  0
    6.7222    0.3004    3.6684 C   0  0  0  0  0  0  0  0  0  0  0  0
    6.6799   -0.9528    0.7845 C   0  0  2  0  0  0  0  0  0  0  0  0
    8.1662   -2.5755    1.9696 N   0  0  0  0  0  0  0  0  0  0  0  0
    7.3773   -0.9264    3.2431 N   0  0  0  0  0  0  0  0  0  0  0  0
    6.7773    0.5118    0.6384 N   0  0  0  0  0  0  0  0  0  0  0  0
    9.0432    0.6938    0.8844 O   0  0  0  0  0  0  0  0  0  0  0  0
    9.2662   -3.5699    3.5291 H   0  0  0  0  0  0  0  0  0  0  0  0
    8.3006   -1.4995    5.1079 H   0  0  0  0  0  0  0  0  0  0  0  0
    8.4390    3.2691    0.8828 H   0  0  0  0  0  0  0  0  0  0  0  0
    8.2862    2.7861   -0.8057 H   0  0  0  0  0  0  0  0  0  0  0  0
    6.8206    3.0391    0.1704 H   0  0  0  0  0  0  0  0  0  0  0  0
    8.1672   -1.5020   -0.6891 H   0  0  0  0  0  0  0  0  0  0  0  0
    6.9603   -2.7574   -0.3888 H   0  0  0  0  0  0  0  0  0  0  0  0
    6.5156   -1.3161   -1.3408 H   0  0  0  0  0  0  0  0  0  0  0  0
    7.3218    1.1777    3.4090 H   0  0  0  0  0  0  0  0  0  0  0  0
    5.7410    0.3926    3.1989 H   0  0  0  0  0  0  0  0  0  0  0  0
    6.5853    0.2688    4.7513 H   0  0  0  0  0  0  0  0  0  0  0  0
    5.6104   -1.1418    0.9519 H   0  0  0  0  0  0  0  0  0  0  0  0
    5.9649    0.9709    0.2483 H   0  0  0  0  0  0  0  0  0  0  0  0
  1  2  2  0  0  0  0
  1  9  1  0  0  0  0
  1 13  1  0  0  0  0
  2 10  1  0  0  0  0
  2 14  1  0  0  0  0
  3  8  1  0  0  0  0
  3  9  2  0  0  0  0
  3 10  1  0  0  0  0
  4  5  1  0  0  0  0
  4 11  1  0  0  0  0
  4 12  2  0  0  0  0
  5 15  1  0  0  0  0
  5 16  1  0  0  0  0
  5 17  1  0  0  0  0
  6  8  1  0  0  0  0
  6 18  1  0  0  0  0
  6 19  1  0  0  0  0
  6 20  1  0  0  0  0
  7 10  1  0  0  0  0
  7 21  1  0  0  0  0
  7 22  1  0  0  0  0
  7 23  1  0  0  0  0
  8 11  1  0  0  0  0
  8 24  1  0  0  0  0
 11 25  1  0  0  0  0
M  END
$$$$
