33
1 1 C12H19N2
C                    -2.428208510314     4.519354273059    -1.804950724896
C                    -1.730165374735     4.725227248386    -0.610915213822
C                    -2.029103920586     3.496725838195    -2.671684130301
C                    -0.647851772544     3.903280015358    -0.283451264595
C                    -0.945140634899     2.678850629095    -2.339648836113
C                    -0.244441320770     2.865059966660    -1.137189120185
C                    -0.277026598165     0.946000150983     1.132624358189
C                    -0.418988682716    -0.311107367401     1.973714254015
C                    -0.346281887721    -1.605991661498    -0.163920409326
C                    -0.164843072127    -0.299630942480    -0.942798517731
C                     0.654593082741    -0.645000004805    -2.192001261027
C                     0.902094190811     1.953586130956    -0.736870328055
N                     0.499203904360     0.682608311661    -0.074923343702
N                    -1.101047015210    -1.365822568270     1.127870108418
H                    -3.264767516777     5.161151178792    -2.066483734014
H                    -2.019372838525     5.531813012040     0.057177190146
H                    -2.551499238458     3.346597168131    -3.612573815873
H                    -0.097897900393     4.086914037942     0.637741614388
H                    -0.631019359862     1.911089337946    -3.042024864109
H                    -1.278613984031     1.363036825972     0.921070485586
H                     0.247354229644     1.688884927294     1.739482735470
H                     0.552719680344    -0.718893019310     2.257418068434
H                    -1.032069840029    -0.148530247965     2.862529277193
H                    -0.914855082284    -2.339275364005    -0.738945702866
H                     0.621132826703    -2.026196202940     0.118778931495
H                    -1.165533206282     0.053087613410    -1.259142802729
H                     1.682402548798    -0.899256361600    -1.917008687765
H                     0.684200679972     0.182017671961    -2.900023773907
H                     0.209952926329    -1.497119938115    -2.714969482023
H                     1.524525052170     1.701051595094    -1.595415261177
H                     1.554648247924     2.469305931234    -0.026163029306
H                    -1.198678416668    -2.243151344999     1.651099758831
H                    -2.052306266899    -1.047577335854     0.904961669822
