25
0 1 C11H12N2
C                     1.890458962213    -1.094085196869    -0.111803545050
C                     1.475757186415    -2.259199120172     0.535569602582
C                     2.275603576660     0.016494739412     0.649405510919
C                     1.443235039860    -2.316356037539     1.934676882934
C                     2.243644707496    -0.043695929737     2.042445917429
C                     5.076579653930    -0.169793445557     5.320387332616
C                     4.295253238367    -1.000350042545     4.545872454358
C                     3.046770689380     0.422028811083     5.683763977914
C                     1.825296995968    -1.210494462231     2.703027973835
C                     1.528069698089    -2.589680099181     4.867764993073
C                     1.775686796512    -1.218360427463     4.229587765298
N                     4.287865696960     0.715440688355     6.027436805024
N                     2.989949847167    -0.610046897521     4.783991261067
H                     1.917738534266    -1.050273520201    -1.197450328656
H                     1.178015840502    -3.128738884619    -0.044808075022
H                     2.605606110678     0.927220223288     0.156338633424
H                     1.119947822856    -3.234468792942     2.414287805274
H                     2.561711400813     0.816165723288     2.626522485526
H                     6.155969017564    -0.157106750021     5.403094772543
H                     4.537330729829    -1.789761740835     3.848980723721
H                     2.152862711264     0.915564476086     6.046130286330
H                     2.292496754761    -3.312760238462     4.569098872943
H                     0.547235504695    -2.981709716605     4.584756480467
H                     1.556195630881    -2.494224801416     5.956243123470
H                     0.960008821152    -0.553927342115     4.537556789041
