30
1 1 C11H17N2
C                    10.402455072815     5.543262655303   -18.707165982285
C                     9.200736194398     4.834048382427   -18.593128436264
C                    11.060697419811     5.969333496549   -17.552387001034
C                     8.667516196841     4.549749264813   -17.335963930786
C                    10.519055117145     5.706077375306   -16.288666482050
C                     9.319191047186     4.991261565860   -16.174339470803
C                     9.614453705877     4.677794576110   -13.752871344626
C                     8.957582441159     3.931092378902   -12.598742282950
C                     6.721755358556     4.628654651150   -13.516758585222
C                     7.440553993819     5.363662582346   -14.648729028548
C                     7.547022088476     6.881565336273   -14.414811185087
N                     8.723590581681     4.683826529548   -14.902249299844
N                     7.616250898004     4.571981967973   -12.289992712237
H                    10.822839148210     5.753811832054   -19.685970087855
H                     8.688485066069     4.482649943757   -19.484307442212
H                    11.994651682401     6.518904609532   -17.628853303771
H                     7.757303549184     3.961137415183   -17.252955404901
H                    11.039989625452     6.068152826760   -15.407479844703
H                     9.924996668740     5.680000437841   -13.410945521992
H                    10.526840541605     4.136666384980   -14.014213214936
H                     8.747351612126     2.894898835499   -12.868865536856
H                     9.557239404532     3.966394261594   -11.686852820881
H                     5.795972131859     5.125718912127   -13.220865533595
H                     6.518225781006     3.592321823013   -13.791232485441
H                     6.815568206678     5.208349764237   -15.531045342822
H                     8.114694083665     7.148874859698   -13.515744565267
H                     6.553622248832     7.332672059367   -14.332076180319
H                     8.057756129244     7.343476238726   -15.262814992840
H                     7.145287615013     4.059924455001   -11.536074300036
H                     7.770004162081     5.525893249462   -11.942545433420
