31
1 1 C12H18N
C                     4.398100538503     2.236086495855    -0.830866223866
C                     3.993528987261     0.926340661971    -0.550598648123
C                     3.502074539186     3.122019709904    -1.434829049285
C                     2.700482059941     0.508434813414    -0.872964514686
C                     2.208722255448     2.699326395122    -1.757891789317
C                     1.793657919175     1.390707031350    -1.481176463770
C                    -0.416425157804     0.564171360938    -0.581652735384
C                    -1.839307428296     0.134402777513    -0.911093018616
C                    -1.050459605367    -0.648117742302    -3.182950110584
C                     0.388579588390     0.944487683139    -1.840746785017
C                     0.381453576944    -0.215694017513    -2.866532365206
C                     1.089133558706     0.152766671377    -4.176585127164
N                    -1.801007312197    -1.008153490781    -1.911397858843
H                     5.403553389265     2.561816913457    -0.580258840277
H                     4.685077578559     0.232095865158    -0.081447341986
H                     3.808341935399     4.140471423130    -1.656297083389
H                     2.408769286024    -0.515789567001    -0.647784752250
H                     1.519833668651     3.395184584457    -2.232174362821
H                    -0.470161743562     1.418329399108     0.099305469439
H                     0.092508198752    -0.235366630121    -0.029897110083
H                    -2.389433896886    -0.219912819324    -0.036482461173
H                    -2.410489699345     0.934067988065    -1.389140333425
H                    -1.620976282612     0.157661819872    -3.652977374342
H                    -1.083154665867    -1.526671035096    -3.831764784564
H                    -0.119657841924     1.795584563439    -2.313877270941
H                     0.904914202626    -1.075533720267    -2.424854579861
H                     0.608186299865     1.013279424041    -4.654374727380
H                     1.080294066160    -0.682041980918    -4.884344046291
H                     2.128961565277     0.418244765393    -3.979173155675
H                    -1.341589220706    -1.815328339798    -1.473850724970
H                    -2.755550965746    -1.307119887228    -2.141067536450
