31
0 1 C11H18N2
C                    -9.147161954917   -13.497572133010    12.697094608980
C                    -7.988796099404   -14.174462891288    12.392709956490
C                    -7.566746417572   -12.024871622333    12.826690510048
C                    -4.868514704887    -9.956361991578    16.963004341295
C                    -4.145477725298    -9.547589715218    15.672422728889
C                    -5.621546274292   -11.281056208521    16.774367778992
C                    -5.109290759083    -9.504337071939    14.478402193530
C                    -6.618455987621   -11.241134301857    15.598285440891
C                    -5.870290049206   -10.829966752479    14.306028289391
C                    -7.843307472086   -10.363323164226    15.906361316097
C                    -6.783850605280   -10.772149612457    13.062063363293
N                    -8.875154163377   -12.168905827255    12.965430291685
N                    -6.985890744777   -13.221126349167    12.478873823204
H                   -10.156228334595   -13.887130032476    12.736333765915
H                    -7.788908382919   -15.202318681518    12.125585941428
H                    -4.149450369746   -10.048339150415    17.785695713900
H                    -5.572199282290    -9.166272861790    17.253862880316
H                    -3.656815628945    -8.574017108471    15.797767336665
H                    -3.347424790705   -10.273909144002    15.462981532798
H                    -4.888004534394   -12.079107142825    16.591181794877
H                    -6.151452855203   -11.551371638423    17.695748918060
H                    -5.827027674358    -8.685359131617    14.615683991408
H                    -4.557200868413    -9.275884359038    13.557747688858
H                    -6.993319440296   -12.261568138286    15.448200290361
H                    -5.113579788002   -11.610378643987    14.125376122179
H                    -7.593288586474    -9.299515063720    15.971317892791
H                    -8.279075115295   -10.654502210008    16.868685890807
H                    -8.618370514433   -10.486764141655    15.145704165500
H                    -6.167379411753   -10.543432210407    12.182436708612
H                    -7.505688008924    -9.957956958150    13.158744415398
H                    -5.999967935699   -13.378459835747    12.318553141853
