23   
torsion grid (-165,)
C        0.8162035678   -1.7133498102    0.2524377850
C        0.2020450278   -0.4732482363    0.9284822338
C       -0.1349402524   -0.8013566160    2.3950799329
C        1.2341638460    0.6701792677    0.8985657598
C       -1.0594059582    0.0017353090    0.1669493693
C       -2.2427340440   -0.9729470584    0.0964247830
C       -3.4010376062   -0.4139442247   -0.7424783025
H        1.0396583032   -1.5170766776   -0.8029481401
H        0.1460418157   -2.5775434982    0.2989617037
H        1.7533898458   -1.9980238847    0.7445385640
H       -0.6062530962    0.0546019198    2.8926632141
H       -0.8169924188   -1.6537804386    2.4749777433
H        0.7736341141   -1.0536109696    2.9539888445
H        0.8388042415    1.5722203949    1.3801051373
H        2.1533618954    0.3857815218    1.4238042549
H        1.5043102469    0.9317590506   -0.1312453395
H       -1.4102017160    0.9347145546    0.6297474017
H       -0.7613056461    0.2682644722   -0.8573243763
H       -2.6046253844   -1.1794048912    1.1103698638
H       -1.9247969908   -1.9356637689   -0.3194462964
H       -4.3260719657   -0.9767876572   -0.5772911766
H       -3.6100921104    0.6275960646   -0.4693540297
H       -3.1696400318   -0.4320203514   -1.8131298813
23   
torsion grid (-150,)
C        0.9808668663   -1.7847308136   -0.0137568817
C        0.3735217359   -0.5522506106    0.6822841246
C        0.0444257284   -0.8985753114    2.1464348726
C        1.4082730757    0.5890610901    0.6610957808
C       -0.8906500922   -0.0645298830   -0.0662340000
C       -2.0826468858   -1.0298019753   -0.1296254495
C       -3.2455880992   -0.4632602899   -0.9657476060
H        1.2000869543   -1.5742243357   -1.0672583536
H        0.3082819800   -2.6475177156    0.0236537325
H        1.9193980213   -2.0791197667    0.4699924747
H       -0.4250248343   -0.0492151046    2.6569710739
H       -0.6362439408   -1.7526693363    2.2197505622
H        0.9562772328   -1.1564848089    2.6973786575
H        1.0190769407    1.4846776064    1.1593657425
H        2.3310145832    0.2946288265    1.1744486861
H        1.6706380841    0.8654546130   -0.3668565847
H       -1.2319025585    0.8683627688    0.4035011308
H       -0.5990284256    0.2046732869   -1.0917375821
H       -2.4363442699   -1.2252267403    0.8889823623
H       -1.7749428790   -1.9989893848   -0.5368258529
H       -4.2154657200   -0.8294745512   -0.6132884112
H       -3.2828124181    0.6298630884   -0.8832652730
H       -3.1437041683   -0.7050297209   -2.0286317332
23   
torsion grid (-135,)
C        1.0326829676   -1.4702821303    0.2276241549
C        0.3787605371   -0.2589248337    0.9185882218
C        0.1038306253   -0.5962713038    2.3960048700
C        1.3516927250    0.9339930687    0.8533837231
C       -0.9264217559    0.1499664663    0.1938543422
C       -2.0646846185   -0.8803116449    0.1662823844
C       -3.2903052681   -0.3799090172   -0.6320001841
H        1.2137975920   -1.2678139518   -0.8346612254
H        0.4077579948   -2.3662691158    0.2972042386
H        1.9973573731   -1.7062587822    0.6915636571
H       -0.3979684828    0.2358779061    2.9040797270
H       -0.5280477519   -1.4839522831    2.5004636300
H        1.0411737017   -0.7956061163    2.9281491856
H        0.9278623901    1.8170804793    1.3457118711
H        2.3001199518    0.6970448222    1.3493658738
H        1.5755393998    1.2050122981   -0.1850529333
H       -1.3076929037    1.0686314689    0.6610789918
H       -0.6734363400    0.4217405566   -0.8410291914
H       -2.3681519553   -1.1028981631    1.1948456287
H       -1.7104727239   -1.8266039000   -0.2555015323
H       -4.2296003719   -0.5776499151   -0.1058083595
H       -3.2436064604    0.7054940645   -0.7791026478
H       -3.3511072111   -0.8361543293   -1.6248868454
23   
torsion grid (-120,)
C        1.2409732300   -1.3905865274   -0.0269579759
C        0.5435802700   -0.2044149629    0.6651185026
C        0.2817989996   -0.5532869747    2.1423182573
C        1.4720361144    1.0235781813    0.6016415501
C       -0.7760936524    0.1578165883   -0.0582165552
C       -1.8627172054   -0.9257056514   -0.1186570568
C       -3.1318359386   -0.4470106637   -0.8660044763
H        1.4095879482   -1.1834007624   -1.0904208348
H        0.6512177620   -2.3097598652    0.0470270766
H        2.2159951715   -1.5882482239    0.4332434267
H       -0.2474494402    0.2604823336    2.6522080613
H       -0.3193135836   -1.4621672370    2.2461098177
H        1.2258596306   -0.7216977594    2.6732689910
H        1.0146174955    1.8907314356    1.0922315021
H        2.4271322025    0.8219880321    1.1004404763
H        1.6886614960    1.3020917599   -0.4363224959
H       -1.2011630625    1.0480440852    0.4265727207
H       -0.5328381049    0.4624439806   -1.0859591792
H       -2.1290998800   -1.2337996877    0.8975791011
H       -1.4624445017   -1.8189133839   -0.6091364329
H       -4.0194546292   -0.4785444406   -0.2262898212
H       -3.0239678271    0.5861442378   -1.2141983948
H       -3.3443177210   -1.0616369721   -1.7464387727
23   
torsion grid (-105,)
C        1.1760568443   -1.4885919281    0.0117145221
C        0.4900357959   -0.2982898953    0.7079375697
C        0.2054972651   -0.6572915095    2.1785130379
C        1.4384516767    0.9153054436    0.6682401546
C       -0.8156666932    0.0923436171   -0.0258937207
C       -1.9034847768   -0.9853033962   -0.1420658105
C       -3.1766555413   -0.4605554668   -0.8451300388
H        1.3551316683   -1.2757353336   -1.0489595637
H        0.5730112931   -2.3999517579    0.0744318202
H        2.1449890959   -1.7029885171    0.4772526371
H       -0.3090360275    0.1634259346    2.6922457625
H       -0.4182023248   -1.5525039259    2.2666838115
H        1.1399324559   -0.8541745017    2.7166484219
H        0.9866285547    1.7860622114    1.1576673941
H        2.3821075579    0.6953825489    1.1808916361
H        1.6761366656    1.1976229317   -0.3640709687
H       -1.2435443367    0.9702328571    0.4791418400
H       -0.5551648524    0.4263780718   -1.0399063788
H       -2.1624568209   -1.3714595610    0.8490993890
H       -1.5028010789   -1.8359621390   -0.7035927542
H       -3.9898075158   -0.2830932586   -0.1337469702
H       -2.9865359126    0.4752340889   -1.3813851367
H       -3.5571621613   -1.1813940470   -1.5766343827
23   
torsion grid (-90,)
C        1.2661893154   -1.6436298386   -0.1816711527
C        0.5658019796   -0.4519283843    0.4975414085
C        0.2735866462   -0.7981428960    1.9696330262
C        1.5044628183    0.7689757625    0.4522399995
C       -0.7380168567   -0.0799962592   -0.2494554749
C       -1.8111333713   -1.1711851042   -0.3707172466
C       -3.0865351111   -0.6582054176   -1.0660460021
H        1.4517077976   -1.4397637275   -1.2430183847
H        0.6694752829   -2.5588417166   -0.1146377096
H        2.2331749949   -1.8460085957    0.2932071978
H       -0.2494238626    0.0244588435    2.4716501286
H       -0.3452243113   -1.6962698946    2.0626044849
H        1.2055365057   -0.9838441448    2.5159912083
H        1.0413682140    1.6412396149    0.9282758687
H        2.4456670993    0.5626610631    0.9749695590
H        1.7482826193    1.0419287451   -0.5811652013
H       -1.1795488994    0.7959880950    0.2473804845
H       -0.4727767003    0.2516480569   -1.2629191022
H       -2.0684615530   -1.5729343007    0.6151030339
H       -1.4012952846   -2.0094366350   -0.9453680836
H       -3.8014770859   -0.2490629747   -0.3439274409
H       -2.8605388714    0.1160341298   -1.8071187463
H       -3.6065042546   -1.4699228408   -1.5871035415
23   
torsion grid (-75,)
C        1.3925449041   -1.6598848874   -0.4803666284
C        0.6844218860   -0.4878163722    0.2244164363
C        0.4306298462   -0.8526503522    1.6991190936
C        1.5985525210    0.7511786484    0.1701578836
C       -0.6422092944   -0.1345716496   -0.4912471090
C       -1.7000882167   -1.2419708906   -0.5905143063
C       -2.9893048132   -0.7508421995   -1.2649938207
H        1.5537159174   -1.4421979600   -1.5429344427
H        0.8135603275   -2.5862582505   -0.4112372205
H        2.3720011372   -1.8496430255   -0.0262910465
H       -0.0984817574   -0.0455072446    2.2195280698
H       -0.1674971833   -1.7641887881    1.7967232459
H        1.3775561907   -1.0237165101    2.2240797100
H        1.1301008279    1.6097985942    0.6653719776
H        2.5551933702    0.5578303499    0.6692931735
H        1.8134570505    1.0387491833   -0.8656928230
H       -1.0865652205    0.7319572040    0.0192952065
H       -0.4048019333    0.2058533786   -1.5088286281
H       -1.9401523286   -1.6363902562    0.4032092839
H       -1.2935228839   -2.0817597455   -1.1659971302
H       -3.5761816616   -0.1188969616   -0.5886744323
H       -2.7733712375   -0.1748754522   -2.1718572910
H       -3.6309682534   -1.5920739086   -1.5505987965
23   
torsion grid (-60,)
C        1.4842844972   -1.5258072585   -0.5531768561
C        0.7484303902   -0.3875726934    0.1782341464
C        0.5174329810   -0.7866562259    1.6477418469
C        1.6262555640    0.8779711005    0.1389030144
C       -0.5935157604   -0.0601427590   -0.5212274600
C       -1.6336221177   -1.1853800757   -0.6010225084
C       -2.9152194797   -0.7356018206   -1.3135847554
H        1.6326356758   -1.2834343348   -1.6122220448
H        0.9317428545   -2.4691472602   -0.4985579711
H        2.4714206359   -1.6971479391   -0.1085177915
H       -0.0355212066   -0.0076703962    2.1860244097
H       -0.0485632454   -1.7197612620    1.7321815690
H        1.4732583314   -0.9344690184    2.1635534221
H        1.1396089576    1.7127984711    0.6566961885
H        2.5938231052    0.7020140407    0.6231742280
H        1.8206869152    1.1922245590   -0.8932363704
H       -1.0481868940    0.7983528275   -0.0068023654
H       -0.3735780479    0.2835072747   -1.5419711020
H       -1.8878365024   -1.5343374858    0.4065856555
H       -1.2132525416   -2.0481758017   -1.1306456349
H       -3.3845829956    0.1049883362   -0.7891892880
H       -2.7036815171   -0.4084407581   -2.3383481541
H       -3.6492956613   -1.5469915520   -1.3672940991
23   
torsion grid (-45,)
C        1.0278972790   -1.3863022545    0.2327777377
C        0.2171860848   -0.3302549500    1.0072144038
C        0.0034322831   -0.8071349473    2.4559371944
C        1.0138209798    0.9882849932    1.0295933821
C       -1.1384370351   -0.0575472373    0.3109417620
C       -2.1207297441   -1.2320049214    0.2080653154
C       -3.3951474378   -0.8512886396   -0.5592147175
H        1.1712506482   -1.0852580090   -0.8117745895
H        0.5339206323   -2.3631030952    0.2362167206
H        2.0194143968   -1.5183893900    0.6810600225
H       -0.6028666793   -0.0900121469    3.0221022516
H       -0.5008275023   -1.7778886984    2.4947772984
H        0.9636345672   -0.9143700635    2.9736581524
H        0.4748053674    1.7663844485    1.5826633540
H        1.9897899166    0.8514441741    1.5096246874
H        1.1897627146    1.3609328067    0.0136707871
H       -1.6394359224    0.7639332805    0.8418623586
H       -0.9335651483    0.3197546188   -0.7013356436
H       -2.3952664266   -1.5651989923    1.2157839956
H       -1.6463010452   -2.0898864547   -0.2815791836
H       -3.7777185208    0.1223193436   -0.2311477223
H       -3.1924850071   -0.7628277513   -1.6332486018
H       -4.1873575076   -1.5960416847   -0.4306832370
23   
torsion grid (-30,)
C        1.2067346072   -1.4567810185   -0.1253457488
C        0.4223136852   -0.4021117885    0.6775481257
C        0.2227891935   -0.8987511550    2.1216922424
C        1.2377975300    0.9046980866    0.7086531239
C       -0.9390596163   -0.0994271919    0.0057674839
C       -1.9439949639   -1.2557040585   -0.0915392697
C       -3.2223445993   -0.8503072654   -0.8492147785
H        1.3404071453   -1.1402223370   -1.1665785048
H        0.6986003924   -2.4262881774   -0.1314350143
H        2.2021697155   -1.6107736260    0.3069858747
H       -0.3674550542   -0.1835752310    2.7069801781
H       -0.2920099239   -1.8642341530    2.1527830509
H        1.1886646635   -1.0246524179    2.6244433309
H        0.7191139575    1.6806017601    1.2838192169
H        2.2196103164    0.7462063405    1.1697257864
H        1.4019742040    1.2921674127   -0.3036884518
H       -1.4186445237    0.7241999896    0.5525619235
H       -0.7436440882    0.2848913483   -1.0058566386
H       -2.2124454004   -1.5785160839    0.9208433196
H       -1.4893978480   -2.1249878581   -0.5786004574
H       -3.4377002839    0.2166484731   -0.7206020244
H       -3.1040902163   -1.0071235417   -1.9277813348
H       -4.0959777693   -1.4250637884   -0.5267755986
23   
torsion grid (-15,)
C        1.5186488702   -2.2316669873   -0.7610533758
C        0.9468756773   -0.8389306461   -0.4358282660
C        0.8224971375   -0.6778144666    1.0908438187
C        1.9157779704    0.2324462193   -0.9718029498
C       -0.4229799481   -0.6312072374   -1.1259674246
C       -1.5645100653   -1.5722766372   -0.7147578123
C       -2.8616447355   -1.3034848100   -1.5117929372
H        1.5915701758   -2.3847364065   -1.8443386288
H        0.8981939570   -3.0339380396   -0.3492700573
H        2.5241146794   -2.3452970343   -0.3395717532
H        0.3808714263    0.2916414558    1.3506987564
H        0.1987749007   -1.4607674038    1.5336799195
H        1.8080812431   -0.7339728669    1.5672803031
H        1.5504719211    1.2420551517   -0.7502064894
H        2.9085148759    0.1286488353   -0.5186409047
H        2.0336829421    0.1503477827   -2.0586661365
H       -0.7488538233    0.4021943400   -0.9431144064
H       -0.2751425292   -0.7120885946   -2.2124967233
H       -1.7621480923   -1.4446699007    0.3550331280
H       -1.2618194365   -2.6164314467   -0.8439110140
H       -2.8194007405   -0.3373611418   -2.0269734464
H       -3.0137569722   -2.0579202812   -2.2914340240
H       -3.7505847430   -1.3103253001   -0.8739497167
23   
torsion grid (0,)
C        1.5209572814   -2.3556625912   -0.8365133894
C        0.9539203580   -0.9613931402   -0.5097187907
C        0.7998961764   -0.8142017497    1.0157267479
C        1.9419442564    0.1076234603   -1.0147378714
C       -0.3999754178   -0.7351176581   -1.2250622291
C       -1.5475279531   -1.6931020916   -0.8732130365
C       -2.8468585778   -1.3673506663   -1.6503642358
H        1.6097135760   -2.5016592781   -1.9196196000
H        0.8882483419   -3.1561402072   -0.4401797666
H        2.5188484650   -2.4795168356   -0.4001686192
H        0.3632578188    0.1572493401    1.2763776890
H        0.1591628621   -1.5948509767    1.4378901202
H        1.7747615534   -0.8858366887    1.5117367004
H        1.5782273027    1.1179214416   -0.7936652050
H        2.9231431845   -0.0063783899   -0.5394496143
H        2.0845752488    0.0332145045   -2.0991659784
H       -0.7308461604    0.2925324516   -1.0184774931
H       -0.2284652172   -0.7834100736   -2.3097148314
H       -1.7428204790   -1.6506423767    0.2032048884
H       -1.2420464193   -2.7231630269   -1.0836115934
H       -2.7096782693   -0.5067290273   -2.3142757840
H       -3.1708903640   -2.2057905725   -2.2749637556
H       -3.6756555437   -1.1246883840   -0.9778337435
23   
torsion grid (15,)
C        1.6503957710   -2.4218945895   -1.0064431468
C        1.0470730697   -1.0424580979   -0.6819141827
C        0.9014977365   -0.8909439872    0.8439542669
C        1.9999868346    0.0517039212   -1.2002271770
C       -0.3188702455   -0.8581265500   -1.3862966780
C       -1.4235690052   -1.8696348945   -1.0482350849
C       -2.7532120621   -1.5479644481   -1.7684070360
H        1.7288167291   -2.5734203544   -2.0896310430
H        1.0466688082   -3.2374254417   -0.5958669049
H        2.6573329844   -2.5129730248   -0.5830065512
H        0.4472162921    0.0728270576    1.1028437420
H        0.2800163105   -1.6821080095    1.2752210081
H        1.8812751880   -0.9401068161    1.3329763845
H        1.6066075834    1.0522965910   -0.9857971896
H        2.9862713286   -0.0283589603   -0.7285395733
H        2.1400519336   -0.0274245107   -2.2846547559
H       -0.6872427070    0.1529532668   -1.1605482456
H       -0.1536292971   -0.8822431429   -2.4724180577
H       -1.5889805696   -1.9047678098    0.0334168661
H       -1.0876556632   -2.8718041129   -1.3356528247
H       -2.6019351994   -0.8288652702   -2.5811815368
H       -3.2254873642   -2.4412482237   -2.1880610817
H       -3.4752554927   -1.0877282284   -1.0850444012
23   
torsion grid (30,)
C        1.3758224612   -2.2755346689   -0.6248559516
C        0.8282565914   -0.8787293199   -0.2768324900
C        0.6381820187   -0.7658614815    1.2474423447
C        1.8489507536    0.1830482786   -0.7290985747
C       -0.5029183270   -0.6079369683   -1.0190519740
C       -1.6608154137   -1.5810975167   -0.7571878070
C       -2.9491671171   -1.1591016773   -1.4883959281
H        1.4845781961   -2.3979017968   -1.7091185433
H        0.7195672939   -3.0724280603   -0.2609429123
H        2.3618808241   -2.4285993470   -0.1712204593
H        0.2234235943    0.2114155772    1.5215743159
H       -0.0360155090   -1.5372054652    1.6330156794
H        1.5970127623   -0.8788705017    1.7664679851
H        1.4951034078    1.1947504188   -0.4985063461
H        2.8129907585    0.0429210689   -0.2264503628
H        2.0237923780    0.1280177917   -1.8099674625
H       -0.8336737832    0.4103772883   -0.7682354717
H       -0.3010419195   -0.6007319445   -2.0991176771
H       -1.8601268552   -1.6672066836    0.3163114197
H       -1.3665252388   -2.5815309774   -1.0944098282
H       -2.7205216553   -0.6226834438   -2.4164533981
H       -3.5901023694   -2.0134635246   -1.7267536649
H       -3.5375813230   -0.4661480989   -0.8756429535
23   
torsion grid (45,)
C        1.4322719136   -2.5128718166   -0.9483720045
C        0.8868414269   -1.1214803706   -0.5763006246
C        0.7324013668   -1.0219988662    0.9529124163
C        1.8918416906   -0.0514629169   -1.0439689006
C       -0.4629844941   -0.8510388272   -1.2846151099
C       -1.6125252103   -1.8254426838   -0.9949133778
C       -2.9106368232   -1.4113710379   -1.7029066867
H        1.5186205152   -2.6251050834   -2.0357330111
H        0.7868140342   -3.3155680776   -0.5779502569
H        2.4282013882   -2.6661357564   -0.5169123057
H        0.3183145864   -0.0496173444    1.2449288141
H        0.0721980991   -1.8006741919    1.3478313179
H        1.7039493410   -1.1332548136    1.4481160944
H        1.5403384709    0.9566019433   -0.7946275816
H        2.8688287353   -0.1927174885   -0.5672991240
H        2.0393834491   -0.0953580007   -2.1294031978
H       -0.7891349529    0.1659318265   -1.0230224746
H       -0.2868695026   -0.8401685372   -2.3693141706
H       -1.7953033889   -1.8967218868    0.0831896171
H       -1.3285514639   -2.8310378520   -1.3266108957
H       -2.7188260167   -1.1245742171   -2.7435109317
H       -3.6539401788   -2.2152569366   -1.6964417685
H       -3.3601879749   -0.5383758717   -1.2148196179
23   
torsion grid (60,)
C        1.3543470969   -1.7830156847   -0.3411304825
C        0.7868942714   -0.4222126810    0.1041709076
C        0.5774417492   -0.4279143376    1.6299880709
C        1.8011825109    0.6806983451   -0.2543428843
C       -0.5385757350   -0.1102157941   -0.6327551437
C       -1.7034670230   -1.0860836814   -0.4204910684
C       -2.9549094773   -0.6679493124   -1.2025354805
H        1.4823541122   -1.8201775200   -1.4295049540
H        0.7003472705   -2.6115128575   -0.0512258611
H        2.3340974028   -1.9623334947    0.1165231103
H        0.1415754971    0.5182972795    1.9720894084
H       -0.0870955534   -1.2379727977    1.9468016785
H        1.5321281622   -0.5634163013    2.1512655677
H        1.4368966944    1.6678721656    0.0533170742
H        2.7628847686    0.5088392637    0.2429089159
H        1.9840595572    0.7134401876   -1.3347850435
H       -0.8682699231    0.8953047984   -0.3350725784
H       -0.3266064523   -0.0501436434   -1.7097115201
H       -1.9513918433   -1.1484134368    0.6454720257
H       -1.4089457859   -2.0957686071   -0.7294627075
H       -2.7536003528   -0.6306443722   -2.2795533609
H       -3.7806258996   -1.3696756344   -1.0416656367
H       -3.2981331218    0.3272447824   -0.8964186334
23   
torsion grid (75,)
C        1.2958140856   -1.8922250327   -0.3649507378
C        0.7330125586   -0.5430810250    0.1201540507
C        0.5073467037   -0.5980186775    1.6426384690
C        1.7590020657    0.5632522899   -0.1913895765
C       -0.5821170803   -0.1973343014   -0.6199793905
C       -1.7673555966   -1.1523038199   -0.4236704098
C       -2.9892301027   -0.7354775942   -1.2552283171
H        1.4404322407   -1.8911938699   -1.4518493844
H        0.6308898548   -2.7251028684   -0.1152010651
H        2.2668606839   -2.0965318663    0.1007139813
H        0.0720424812    0.3385221003    2.0111696898
H       -0.1641863619   -1.4148452489    1.9254937467
H        1.4559341981   -0.7549752314    2.1690160224
H        1.4006292000    1.5418465768    0.1488882674
H        2.7156620244    0.3655649716    0.3060058688
H        1.9499444405    0.6330310853   -1.2686934097
H       -0.8971306754    0.8091408539   -0.3109527532
H       -0.3616736578   -0.1262153291   -1.6948395125
H       -2.0463750577   -1.1713912638    0.6362847111
H       -1.4843289158   -2.1776684363   -0.6867428895
H       -2.8490137774   -0.9744848768   -2.3156065260
H       -3.8903099639   -1.2655596965   -0.9265323244
H       -3.1857763350    0.3390727539   -1.1687571900
23   
torsion grid (90,)
C        1.3516528279   -2.0931661997   -0.6039155412
C        0.8138364129   -0.7466963718   -0.0842230954
C        0.5914432942   -0.8345972175    1.4372364768
C        1.8582080899    0.3487848147   -0.3722374911
C       -0.4968495566   -0.3601429521   -0.8115183810
C       -1.7016381294   -1.2935856859   -0.6267336268
C       -2.9187889100   -0.8439149379   -1.4571675215
H        1.4947143282   -2.0674064563   -1.6907017338
H        0.6723939575   -2.9201435598   -0.3738757588
H        2.3195669705   -2.3263711095   -0.1453524189
H        0.1711220909    0.0992489169    1.8292794243
H       -0.0913869488   -1.6478988101    1.7026739513
H        1.5390350135   -1.0180081720    1.9568113881
H        1.5187380285    1.3246381094   -0.0057025497
H        2.8131629386    0.1215952850    0.1157413369
H        2.0460438122    0.4424540300   -1.4482739615
H       -0.7910671347    0.6458684602   -0.4816312369
H       -0.2794702494   -0.2724255939   -1.8858537562
H       -1.9772587106   -1.3113150457    0.4337262387
H       -1.4384277869   -2.3231560304   -0.8916238112
H       -2.9145568935   -1.2966685706   -2.4546597340
H       -3.8569890906   -1.1535055424   -0.9831550452
H       -2.9519172198    0.2449981235   -1.5706601178
23   
torsion grid (105,)
C        1.4642712928   -2.1691349396   -0.8267908725
C        0.9253521118   -0.8176945764   -0.3212097958
C        0.6825686630   -0.8968866004    1.1976564357
C        1.9782071535    0.2719456022   -0.6006070600
C       -0.3734956065   -0.4288629327   -1.0680481054
C       -1.5823902531   -1.3614172636   -0.9034763567
C       -2.7988763890   -0.8980219249   -1.7377721481
H        1.6200147388   -2.1503878259   -1.9119800258
H        0.7793780039   -2.9922654539   -0.5997272613
H        2.4259360614   -2.4030517967   -0.3556163444
H        0.2604661992    0.0404317804    1.5793224796
H       -0.0064433941   -1.7064853718    1.4583981019
H        1.6225909380   -1.0809434518    1.7305753145
H        1.6375283203    1.2513017833   -0.2447095972
H        2.9250696727    0.0437688811   -0.0975655103
H        2.1819511091    0.3584789776   -1.6743392956
H       -0.6709007529    0.5776986948   -0.7424013413
H       -0.1404363310   -0.3417031534   -2.1389899067
H       -1.8609381963   -1.3990923956    0.1550470507
H       -1.3126674156   -2.3851474437   -1.1824341553
H       -2.9438100422   -1.5217157548   -2.6259021923
H       -3.7279522919   -0.9598554408   -1.1611555412
H       -2.6913112799    0.1406021543   -2.0680852707
23   
torsion grid (120,)
C        1.5315566901   -2.0541160703   -0.8404977921
C        0.9685816261   -0.7111999405   -0.3385064570
C        0.7380274595   -0.7873310012    1.1824730184
C        1.9967395811    0.3986835419   -0.6301857082
C       -0.3430967547   -0.3522027390   -1.0778188214
C       -1.5202415598   -1.3274652801   -0.9307910795
C       -2.7732404328   -0.8614688625   -1.7125720309
H        1.6719105093   -2.0414356664   -1.9279035821
H        0.8687780659   -2.8905003901   -0.5968638921
H        2.5047206786   -2.2617630904   -0.3807637808
H        0.3046988966    0.1452252764    1.5630971711
H        0.0633301213   -1.6060572110    1.4519824561
H        1.6844918927   -0.9550123867    1.7093609053
H        1.6357380377    1.3734156112   -0.2817025598
H        2.9495769679    0.1954504614   -0.1277473956
H        2.1958649060    0.4804492158   -1.7051406010
H       -0.6702688580    0.6399865266   -0.7361401492
H       -0.1160995902   -0.2419878488   -2.1476478003
H       -1.7701682863   -1.4428323627    0.1288479342
H       -1.2182862106   -2.3205360226   -1.2790014203
H       -3.0783476380   -1.5915776706   -2.4688435331
H       -3.6310863311   -0.7006274039   -1.0520353362
H       -2.5888368250    0.0836191698   -2.2351493638
23   
torsion grid (135,)
C        1.3432310477   -2.4133456249   -0.8585655024
C        0.8276195845   -1.0588402772   -0.3373808020
C        0.5264152919   -1.1685381960    1.1691564108
C        1.9223936118    0.0046354431   -0.5480840467
C       -0.4304895678   -0.6095829832   -1.1192216929
C       -1.6486957094   -1.5436756371   -1.0827771068
C       -2.8576632395   -0.9619872193   -1.8507940536
H        1.5297701049   -2.3755884622   -1.9384664222
H        0.6295086718   -3.2212822691   -0.6688314693
H        2.2845995056   -2.6841380045   -0.3666079717
H        0.1299909509   -0.2246008464    1.5616875071
H       -0.2044543148   -1.9548214428    1.3830523107
H        1.4378312103   -1.4064936655    1.7297066729
H        1.5941113682    0.9864992105   -0.1874163601
H        2.8391042719   -0.2607206974   -0.0087450921
H        2.1759939663    0.1058676331   -1.6098284399
H       -0.7337572001    0.3779719496   -0.7429064046
H       -0.1477942244   -0.4567970853   -2.1701020790
H       -1.9354099264   -1.7536215722   -0.0471397936
H       -1.3707789552   -2.5082952752   -1.5207798446
H       -3.3352125225   -1.7113235714   -2.4900853641
H       -3.6168176442   -0.5524281445   -1.1772655038
H       -2.5435489787   -0.1477630545   -2.5143341459
23   
torsion grid (150,)
C        1.2610397289   -2.3426258700   -0.7437815627
C        0.7538366353   -0.9912914189   -0.2065510391
C        0.4409889252   -1.1199040888    1.2960924868
C        1.8591283648    0.0655587854   -0.3940378825
C       -0.4950853888   -0.5202361321   -0.9905032662
C       -1.7166019085   -1.4500158814   -0.9853217091
C       -2.9172121823   -0.8366051706   -1.7301448093
H        1.4562824992   -2.2906759387   -1.8215689867
H        0.5382868696   -3.1464527824   -0.5715822287
H        2.1960508348   -2.6294379353   -0.2487836545
H        0.0513728724   -0.1777498280    1.6995517322
H       -0.2992833555   -1.9016873905    1.4935399601
H        1.3459984505   -1.3751922808    1.8593902586
H        1.5364511227    1.0450092824   -0.0219208433
H        2.7695382137   -0.2151977607    0.1481826035
H        2.1214572927    0.1796043661   -1.4523631047
H       -0.7964638463    0.4613222504   -0.5969502343
H       -0.2022963248   -0.3476702076   -2.0354383800
H       -2.0087718784   -1.6998921440    0.0403595103
H       -1.4443661812   -2.3972557011   -1.4643592962
H       -3.5507417662   -1.6063819574   -2.1830096938
H       -3.5344121213   -0.2149829679   -1.0734811968
H       -2.5746157302   -0.1985255544   -2.5539091124
23   
torsion grid (165,)
C        1.3548045577   -2.0080568192   -0.6409799718
C        0.8196467479   -0.6913354233   -0.0478402720
C        0.5144210708   -0.8884406680    1.4489094690
C        1.9008043409    0.3964278837   -0.1945174358
C       -0.4420798970   -0.2166181099   -0.8091040457
C       -1.6458332471   -1.1682749671   -0.8300353538
C       -2.8517389191   -0.5573047444   -1.5583629072
H        1.5474498035   -1.9072251225   -1.7157527305
H        0.6494612711   -2.8334906051   -0.5020222121
H        2.2963002712   -2.2952943262   -0.1586900377
H        0.1027361306    0.0265461870    1.8911579136
H       -0.2057588174   -1.6957317026    1.6156025218
H        1.4270581870   -1.1438813279    1.9996900723
H        1.5588573898    1.3518703069    0.2203672286
H        2.8197503747    0.1127998059    0.3315694332
H        2.1553504591    0.5611796803   -1.2480479889
H       -0.7602334549    0.7440389074   -0.3790663163
H       -0.1568708504   -0.0005512752   -1.8481722433
H       -1.9383201515   -1.4420291482    0.1899822512
H       -1.3628767457   -2.1015040091   -1.3306895987
H       -3.6020579738   -1.3172732803   -1.8017931480
H       -3.3311482148    0.2250507419   -0.9598105270
H       -2.5418067725   -0.1017601984   -2.5067679361
23   
torsion grid (180,)
C        1.2486685276   -1.6260580502   -0.1564904331
C        0.6604987919   -0.3369553243    0.4471273019
C        0.3443150241   -0.5656063323    1.9370145634
C        1.7048754296    0.7894298053    0.3276665802
C       -0.6077573064    0.1036670117   -0.3239777399
C       -1.7913114401   -0.8726852446   -0.3398172262
C       -2.9819989171   -0.3216457893   -1.1342742428
H        1.4528558176   -1.5032686381   -1.2267955928
H        0.5702260029   -2.4770309668   -0.0392908774
H        2.1924592093   -1.8882753043    0.3354588915
H       -0.1084089514    0.3265296450    2.3858639137
H       -0.3460518090   -1.4024111127    2.0830564872
H        1.2591219042   -0.7930643899    2.4963945155
H        1.3266369131    1.7259859612    0.7538953572
H        2.6281815374    0.5290441282    0.8581090394
H        1.9632274282    0.9793334380   -0.7206951920
H       -0.9506422026    1.0594801164    0.0970189261
H       -0.3202652164    0.3190752712   -1.3628820515
H       -2.1138322615   -1.0883973474    0.6854107855
H       -1.4826600093   -1.8301765260   -0.7752575733
H       -3.8207770294   -1.0263197159   -1.1390290042
H       -3.3406621770    0.6214236200   -0.7055033049
H       -2.7047268758   -0.1256438721   -2.1766803243
