14   
torsion grid (-165,)
C       -0.3039775657   -1.3301612512    0.9930491150
N       -0.1194198183   -0.4947494081   -0.1834400956
C       -1.1106509573    0.2124821854   -0.5640779885
N       -2.3657025017    0.3200137091    0.0270779050
O       -1.0322963692    1.0512247139   -1.6330185100
C        0.2549038486    1.1329957793   -2.2640158384
H       -1.0406949963   -2.1350759274    0.8300754223
H       -0.6294697074   -0.7555395846    1.8738533914
H        0.6446003850   -1.8133653927    1.2420597909
H       -2.6856616941   -0.5101886204    0.5092253910
H       -3.0684258658    0.7447952651   -0.5665303247
H        0.1329757627    1.8557406331   -3.0722184692
H        0.5533834370    0.1583612364   -2.6583088853
H        1.0110918764    1.4723561314   -1.5515487279
14   
torsion grid (-150,)
C       -0.3132847590   -1.3248709046    0.9911391699
N       -0.1209351585   -0.4579875120   -0.1604967470
C       -1.1084417587    0.2512534710   -0.5472295121
N       -2.3842218283    0.3401462798    0.0104580027
O       -1.0201901729    1.0882952402   -1.6152875127
C        0.2621217172    1.1416223562   -2.2588842435
H       -1.1243569429   -2.0594761353    0.8464242588
H       -0.5356075292   -0.7611000502    1.9097127427
H        0.6033971093   -1.8937104136    1.1679648968
H       -2.6289551551   -0.4563839079    0.5869024883
H       -3.1052521349    0.5488039548   -0.6721305628
H        0.1454042538    1.8602044485   -3.0715253926
H        0.5401645220    0.1588297769   -2.6484036264
H        1.0308136712    1.4732628655   -1.5564617863
14   
torsion grid (-135,)
C       -0.3227847491   -1.3211188040    0.9844483441
N       -0.1264903047   -0.4195302511   -0.1386319517
C       -1.1110691232    0.2888084858   -0.5344598521
N       -2.4107973578    0.3564896213   -0.0190428615
O       -1.0082669964    1.1250476770   -1.6006308664
C        0.2706336961    1.1490745082   -2.2521753507
H       -1.1912476722   -1.9910080598    0.8604775843
H       -0.4509482292   -0.7816258296    1.9345175641
H        0.5600547075   -1.9575592133    1.0889724123
H       -2.5895123545   -0.3681510767    0.6674418106
H       -3.1199549955    0.3348716766   -0.7457948163
H        0.1610315486    1.8599816114   -3.0725178013
H        0.5309028843    0.1573030018   -2.6318272181
H        1.0491047799    1.4763061218   -1.5585948212
14   
torsion grid (-120,)
C       -0.3339011118   -1.3190282242    0.9742730095
N       -0.1352000989   -0.3879838086   -0.1234014824
C       -1.1171674535    0.3176831716   -0.5302019657
N       -2.4404627649    0.3658988674   -0.0561016167
O       -0.9985774284    1.1530438574   -1.5943556171
C        0.2808227618    1.1579675163   -2.2448759603
H       -1.2502854548   -1.9261660458    0.8801625016
H       -0.3709123840   -0.8061242876    1.9462189990
H        0.5111640874   -2.0122316241    1.0086234143
H       -2.5670751993   -0.2519716984    0.7391233738
H       -3.1116815404    0.1115839845   -0.7763286547
H        0.1783947890    1.8599809672   -3.0737894435
H        0.5336859157    0.1594451007   -2.6123016640
H        1.0618517159    1.4867916928   -1.5548627178
14   
torsion grid (-105,)
C       -0.3500086287   -1.3201702388    0.9586992212
N       -0.1447458326   -0.3696085960   -0.1209457923
C       -1.1239074851    0.3343626447   -0.5370844036
N       -2.4669239383    0.3678457569   -0.0929801451
O       -0.9906639366    1.1714275215   -1.5967212400
C        0.2929017913    1.1689692812   -2.2386700163
H       -1.2984066563   -1.8779733216    0.8890340923
H       -0.3213157395   -0.8286473195    1.9415678861
H        0.4625376219   -2.0521274118    0.9438849647
H       -2.5504471939   -0.1102026829    0.7998341848
H       -3.0832549892   -0.1083701362   -0.7486317136
H        0.1963077867    1.8610329565   -3.0766133037
H        0.5491389636    0.1660086725   -2.5917441678
H        1.0694440706    1.5063423429   -1.5474473907
14   
torsion grid (-90,)
C       -0.5396862862   -0.9725829667    1.7034646250
N       -0.0150093560    0.0408891170    0.8008015828
C       -0.5824663372    0.2205057195   -0.3206516247
N       -1.7475536047   -0.4340463488   -0.8104247695
O       -0.1744148237    1.2047604241   -1.1764788048
C        0.8884884050    2.0471850909   -0.7009844689
H        0.0652079883   -1.8864027697    1.6353926863
H       -1.5857730196   -1.2365554929    1.5033426859
H       -0.4494458330   -0.6073252600    2.7318718034
H       -2.1858571852    0.1798586430   -1.4964363876
H       -1.4953480023   -1.2809036321   -1.3187344536
H        1.0475125028    2.7854668528   -1.4885671306
H        1.7956034453    1.4617604636   -0.5305084445
H        0.6026205657    2.5335826467    0.2355390414
14   
torsion grid (-75,)
C       -0.5463350323   -0.9718302585    1.6834635681
N       -0.0026015147    0.0441551082    0.7943226833
C       -0.5705732433    0.2305545729   -0.3276075439
N       -1.7368111248   -0.4050302465   -0.8162384792
O       -0.1670565903    1.2179442323   -1.1796063975
C        0.8791891855    2.0736078569   -0.6920068803
H       -0.0627121395   -1.9429463664    1.5074010885
H       -1.6307705011   -1.1083845597    1.5727477113
H       -0.3274151045   -0.6897531794    2.7180510681
H       -2.0676923700    0.0998086936   -1.6362895310
H       -1.5482150820   -1.3617070550   -1.1080789320
H        1.0319251004    2.8182899343   -1.4747377893
H        1.7939210284    1.5011832585   -0.5187367183
H        0.5790258474    2.5503004962    0.2449424930
14   
torsion grid (-60,)
C       -0.5556566410   -0.9716407064    1.6621976370
N       -0.0003478576    0.0559624638    0.7931764467
C       -0.5627585086    0.2457271188   -0.3327706767
N       -1.7131326109   -0.3907793706   -0.8340075610
O       -0.1612966387    1.2340961039   -1.1815444231
C        0.8718932097    2.0995295744   -0.6842510949
H       -0.2052800516   -1.9749394102    1.3761418021
H       -1.6551520495   -0.9875146385    1.6579381031
H       -0.2138476940   -0.7944806736    2.6860407459
H       -1.9530919234   -0.0167477900   -1.7485842994
H       -1.6006495071   -1.3980655118   -0.9076506887
H        1.0264343332    2.8436297330   -1.4671256695
H        1.7896408579    1.5355665001   -0.4998997424
H        0.5571235409    2.5758490946    0.2479657617
14   
torsion grid (-45,)
C       -0.5632838172   -0.9725515127    1.6429953405
N       -0.0113830873    0.0746462344    0.7958981919
C       -0.5643678326    0.2648992304   -0.3363789122
N       -1.6844940243   -0.3879156128   -0.8630095149
O       -0.1622775217    1.2545865727   -1.1807764747
C        0.8661259382    2.1213991263   -0.6768721368
H       -0.3317754870   -1.9807685525    1.2625659093
H       -1.6560494838   -0.9006254088    1.7494258062
H       -0.1183557601   -0.8984028161    2.6390312542
H       -1.8402000218   -0.1476345993   -1.8371491629
H       -1.6626870732   -1.3940982894   -0.7352063299
H        1.0307729756    2.8598030724   -1.4630392579
H        1.7809393742    1.5577422437   -0.4776791916
H        0.5409142804    2.6051127993    0.2478208195
14   
torsion grid (-30,)
C       -0.5656328072   -0.9736347648    1.6286993540
N       -0.0346335404    0.0987824433    0.8015301647
C       -0.5751592676    0.2852407543   -0.3389888812
N       -1.6530004278   -0.3941540408   -0.9004031141
O       -0.1704994367    1.2779292361   -1.1773934836
C        0.8625728183    2.1360192894   -0.6695291443
H       -0.4112100286   -1.9709253553    1.1824477784
H       -1.6427878240   -0.8618505231    1.8260987456
H       -0.0484036957   -0.9732338829    2.5918768818
H       -1.7377071648   -0.2713688145   -1.9030366988
H       -1.7461067102   -1.3580755861   -0.6050606519
H        1.0409304550    2.8683588824   -1.4583809533
H        1.7701876723    1.5643896153   -0.4598150435
H        0.5353284167    2.6287152342    0.2495813869
14   
torsion grid (-15,)
C       -0.5636857001   -0.9739238555    1.6213386606
N       -0.0624903536    0.1240765586    0.8108481297
C       -0.5851263788    0.2991430541   -0.3409888751
N       -1.6107296148   -0.4152464703   -0.9393156716
O       -0.1786288686    1.2960147155   -1.1736494560
C        0.8599980966    2.1452929556   -0.6630022254
H       -0.4559507663   -1.9560913152    1.1292591111
H       -1.6246546836   -0.8507763512    1.8895007034
H        0.0053913532   -1.0201695803    2.5537413131
H       -1.6565873527   -0.3715914281   -1.9489377794
H       -1.8472968395   -1.3047797820   -0.5238569173
H        1.0496391677    2.8730279870   -1.4535477974
H        1.7611942753    1.5660953310   -0.4459275167
H        0.5328061246    2.6451206683    0.2521646617
14   
torsion grid (0,)
C       -0.5552219607   -0.9760725470    1.6220416514
N       -0.0535904690    0.1245731429    0.8160493132
C       -0.5443285373    0.2682630478   -0.3552169707
N       -1.5066290408   -0.4930060935   -0.9773208246
O       -0.1424184001    1.2673437461   -1.1895233477
C        0.8652044707    2.1436507392   -0.6635307158
H       -0.3709044453   -1.9610554072    1.1613055847
H       -1.6369671286   -0.8995079858    1.8230068891
H       -0.0469343876   -0.9732440294    2.5901413864
H       -1.8018694290   -0.2630850367   -1.9140186635
H       -1.9209661331   -1.2806570447   -0.5068246840
H        1.0558110310    2.8692270879   -1.4559601688
H        1.7742123659    1.5863463267   -0.4231596886
H        0.5084805233    2.6434165411    0.2406365798
14   
torsion grid (15,)
C       -0.5535917522   -0.9827030739    1.6157266974
N       -0.0574016041    0.1194789086    0.8078280291
C       -0.5103001072    0.2364954722   -0.3802905680
N       -1.4185896890   -0.5759182100   -1.0401285759
O       -0.1105736030    1.2392794069   -1.2091611738
C        0.8670207795    2.1395283112   -0.6663133888
H       -0.2926735086   -1.9660668023    1.1942927560
H       -1.6487748279   -0.9578533659    1.7512559884
H       -0.1075376669   -0.9259156319    2.6123034831
H       -1.9161952330   -0.1546536454   -1.8135393401
H       -1.9499418620   -1.2176848107   -0.4693455120
H        1.0626701097    2.8624351088   -1.4598187454
H        1.7800680004    1.6007945151   -0.4006072150
H        0.4796994236    2.6389763048    0.2254239060
14   
torsion grid (30,)
C       -0.5488546346   -0.9876962671    1.6199330897
N       -0.0833461409    0.1395750761    0.8269582267
C       -0.5212144792    0.2400658461   -0.3671487419
N       -1.3804278747   -0.6224309744   -1.0426900630
O       -0.1276338548    1.2420369450   -1.1997657831
C        0.8554843582    2.1419620815   -0.6658216853
H       -0.3353425892   -1.9568398563    1.1435944482
H       -1.6332002978   -0.9475223385    1.8203224209
H       -0.0459242665   -0.9753268509    2.5905746848
H       -1.8054247970   -0.2146504884   -1.8676858696
H       -2.0409435186   -1.1111443073   -0.4511505250
H        1.0573391831    2.8546251805   -1.4669370925
H        1.7640255462    1.5996770022   -0.3918103609
H        0.4693418250    2.6538614390    0.2192535918
14   
torsion grid (45,)
C       -0.5404048004   -0.9917194224    1.6310468392
N       -0.1071138859    0.1548179188    0.8458702716
C       -0.5372376022    0.2421792116   -0.3505413932
N       -1.3549378416   -0.6639161559   -1.0350463142
O       -0.1493407375    1.2437569841   -1.1875255699
C        0.8391452149    2.1439986141   -0.6627800419
H       -0.4086375839   -1.9453452090    1.0982498385
H       -1.6002240656   -0.9184425502    1.9247093344
H        0.0434520521   -1.0339283568    2.5545596669
H       -1.6642177743   -0.2950122381   -1.9290166767
H       -2.1414495330   -0.9931298220   -0.4852915562
H        1.0477456278    2.8455945676   -1.4718886289
H        1.7429910452    1.5983677004   -0.3796755449
H        0.4541083437    2.6689712452    0.2149561159
14   
torsion grid (60,)
C       -0.5295763231   -0.9934901995    1.6485779713
N       -0.1245532141    0.1599816786    0.8580131963
C       -0.5516188576    0.2363993397   -0.3385855044
N       -1.3416500907   -0.7018935667   -1.0279305845
O       -0.1671470154    1.2390010071   -1.1784861669
C        0.8166082531    2.1458342497   -0.6553840040
H       -0.5307698989   -1.9291963075    1.0709856155
H       -1.5368778061   -0.8597268011    2.0712492873
H        0.1577629459   -1.1057179314    2.4920490051
H       -1.5048164674   -0.3921723751   -1.9825929692
H       -2.2368438203   -0.8652457493   -0.5755530882
H        1.0319176516    2.8390434138   -1.4699780570
H        1.7180210014    1.6035924478   -0.3580335358
H        0.4234221010    2.6797832812    0.2132951752
14   
torsion grid (75,)
C       -0.5186124158   -0.9950548814    1.6689865922
N       -0.1339363676    0.1541455906    0.8628807510
C       -0.5616598540    0.2230911914   -0.3322607117
N       -1.3440320258   -0.7339807953   -1.0212789752
O       -0.1797518408    1.2285817597   -1.1729753915
C        0.7904132472    2.1479612067   -0.6456568054
H       -0.6787168001   -1.9057395957    1.0757536630
H       -1.4421888821   -0.7876354024    2.2275018373
H        0.2650632826   -1.1859674903    2.4087632332
H       -1.3450017049   -0.5054406969   -2.0135475704
H       -2.3126929151   -0.7214486938   -0.7090148804
H        1.0063161556    2.8397438515   -1.4613589509
H        1.6944528067    1.6161254156   -0.3373206779
H        0.3842257734    2.6818110276    0.2171542274
14   
torsion grid (90,)
C       -0.5087601941   -0.9984905045    1.6873153204
N       -0.1331173942    0.1398019570    0.8624548383
C       -0.5663509829    0.2070106637   -0.3290645041
N       -1.3654373414   -0.7540666777   -1.0098991649
O       -0.1891880305    1.2171382360   -1.1687631139
C        0.7631202947    2.1521845416   -0.6355326868
H       -0.8247836604   -1.8738932850    1.1060865595
H       -1.3282011135   -0.7194233240    2.3627674622
H        0.3439324902   -1.2717939723    2.3177106387
H       -1.2015416352   -0.6445034393   -2.0102667703
H       -2.3562421511   -0.5598956950   -0.8693392989
H        0.9709433360    2.8496004219   -1.4485860118
H        1.6749807501    1.6354756682   -0.3242423015
H        0.3445240915    2.6770478969    0.2269853738
14   
torsion grid (105,)
C       -0.3551052930   -1.2982713103    0.9792965546
N       -0.1884777837   -0.5033758825   -0.2255730954
C       -1.1856179899    0.1303255955   -0.7068616187
N       -2.5243726353    0.1894392406   -0.2526760829
O       -1.0497941012    0.9478555757   -1.7813188643
C        0.2823873719    1.0885056808   -2.2962510471
H       -0.7838147058   -2.2857244990    0.7566006438
H       -0.9884846118   -0.8215162440    1.7454503562
H        0.6276474215   -1.4705056963    1.4273419787
H       -2.6917699047   -0.5409643598    0.4337003989
H       -2.7201024693    1.0797098633    0.2007912375
H        0.1991108824    1.8022018009   -3.1173078758
H        0.6588603459    0.1279048711   -2.6570022174
H        0.9601893069    1.4633048333   -1.5240081922
14   
torsion grid (120,)
C       -0.3456282175   -1.3185304314    0.9775520421
N       -0.1728902005   -0.5019369402   -0.2117972622
C       -1.1758219829    0.1238821183   -0.6915792982
N       -2.5107469894    0.1462370969   -0.2492199284
O       -1.0511812858    0.9510052642   -1.7614606180
C        0.2772072228    1.1000377047   -2.2841834353
H       -0.8372197844   -2.2756145966    0.7507329300
H       -0.9262962150   -0.8236502417    1.7745160676
H        0.6385225069   -1.5531025661    1.3926054744
H       -2.6400067355   -0.4593147923    0.5550041360
H       -2.8135572325    1.0849650912   -0.0021705568
H        0.1826689512    1.8060661369   -3.1106205389
H        0.6609919362    0.1401528099   -2.6385562644
H        0.9546138602    1.4886928155   -1.5186405721
14   
torsion grid (135,)
C       -0.3379259970   -1.3315840510    0.9788786093
N       -0.1497975623   -0.4865614327   -0.1887031711
C       -1.1591580578    0.1296593441   -0.6675374222
N       -2.4917321307    0.1027679050   -0.2396919009
O       -1.0483294847    0.9641069494   -1.7343077529
C        0.2733005859    1.1116215969   -2.2748703113
H       -0.9137472499   -2.2398912835    0.7475393742
H       -0.8454759517   -0.8173357545    1.8133184703
H        0.6400068396   -1.6522792200    1.3479166705
H       -2.5991081977   -0.3690006385    0.6514922132
H       -2.9070197996    1.0287625578   -0.1995639117
H        0.1668031027    1.8110255853   -3.1054457604
H        0.6543213221    0.1495604072   -2.6261723421
H        0.9585184148    1.5080375038   -1.5206705890
14   
torsion grid (150,)
C       -0.3300835000   -1.3406127331    0.9813435330
N       -0.1252106668   -0.4629774389   -0.1599426729
C       -1.1401279324    0.1457379792   -0.6365595863
N       -2.4708914683    0.0683410620   -0.2247208267
O       -1.0420183656    0.9869633498   -1.7004628773
C        0.2702215847    1.1218670838   -2.2672186257
H       -0.9892365985   -2.1898619394    0.7461077900
H       -0.7580211416   -0.8185048904    1.8546696952
H        0.6337577530   -1.7495080198    1.2959328133
H       -2.5804939286   -0.2683438762    0.7246337382
H       -2.9892134212    0.9258293658   -0.3841150742
H        0.1524918650    1.8156012144   -3.1010302608
H        0.6384299500    0.1544716684   -2.6177030578
H        0.9710517043    1.5198866438   -1.5287524123
14   
torsion grid (165,)
C       -0.3206882111   -1.3456049774    0.9840746015
N       -0.1038757407   -0.4357593577   -0.1303661246
C       -1.1233191690    0.1682156257   -0.6030815913
N       -2.4523938196    0.0466483664   -0.2075706894
O       -1.0344031292    1.0148871841   -1.6650955331
C        0.2680101542    1.1303078286   -2.2587634574
H       -1.0615754853   -2.1267508016    0.7546538413
H       -0.6576157593   -0.8253931217    1.8967842108
H        0.6220250385   -1.8413194384    1.2306131502
H       -2.5887121084   -0.1632713970    0.7732601826
H       -3.0539244657    0.7862595863   -0.5514336685
H        0.1426123914    1.8212619210   -3.0938011628
H        0.6169791461    0.1562603641   -2.6110395172
H        0.9875369919    1.5231476870   -1.5360520661
14   
torsion grid (180,)
C       -0.3107329218   -1.3495086243    0.9845866498
N       -0.0915048546   -0.4116911161   -0.1057092339
C       -1.1124149013    0.1954468706   -0.5711226040
N       -2.4399035568    0.0518081723   -0.1886451756
O       -1.0255757580    1.0447383038   -1.6331514496
C        0.2684944943    1.1368397505   -2.2485846971
H       -1.1261169768   -2.0598199316    0.7772431381
H       -0.5463359367   -0.8401442019    1.9333264509
H        0.6043145471   -1.9245100349    1.1516705354
H       -2.6230600335   -0.0710350999    0.7975594192
H       -3.0999595034    0.6329929471   -0.6892291805
H        0.1382561481    1.8176911743   -3.0912492566
H        0.6021012859    0.1541380262   -2.5919909772
H        1.0030938012    1.5319432332   -1.5425214430
