19   
torsion grid (-165,)
C       -0.2939123098    1.8346541643    3.3873417675
C       -0.5802728372    0.6451315701    2.6298338441
C        0.4458199501    2.6398392907    2.5750526932
C        0.0128397749    0.8061621855    1.4066347537
C       -0.3305731536   -1.4053286833    0.1165793597
C       -0.2783998105    0.7850687085   -1.1645338714
C        1.1326543645    0.3961485636   -0.8975066246
C        0.0593641235    0.0337619182    0.1430044244
O       -0.3336656271   -2.0905318420   -0.8920788196
O        0.6439645122    2.0301096417    1.3620341977
O       -0.6895244658   -1.9149597354    1.3234076071
H       -0.5989782599    2.0529353290    4.4024256971
H       -1.1420590039   -0.2169399675    2.9532300358
H        0.8960960701    3.6153347837    2.6883713748
H       -0.5612600615    1.8237612078   -1.0324315286
H       -0.8357015416    0.2191367664   -1.9028804079
H        1.5411775487   -0.4401261665   -1.4536245512
H        1.8330961649    1.1647984606   -0.5927078652
H       -0.9101154630   -2.8515965585    1.1543716663
19   
torsion grid (-150,)
C       -0.2237172994    1.8078353666    3.4074351432
C       -0.4507069456    0.5869514522    2.6794456131
C        0.3219916896    2.6886618929    2.5239833971
C       -0.0249205169    0.8093654892    1.3974407118
C       -0.4052722274   -1.3962943730    0.1001936804
C       -0.2250450959    0.7808538715   -1.1841609413
C        1.1610526689    0.3468979094   -0.8598867620
C        0.0295218704    0.0297603979    0.1382817010
O       -0.3962507119   -2.0826429488   -0.9075926478
O        0.4511700449    2.0985572363    1.2918555833
O       -0.8212182385   -1.8944214762    1.2934198729
H       -0.4401729734    1.9961036044    4.4508870125
H       -0.8716073231   -0.3305864713    3.0578777108
H        0.6605284099    3.7123956151    2.5914536529
H       -0.4762666033    1.8297873750   -1.0739182738
H       -0.7698736098    0.2269946714   -1.9405116522
H        1.5662425123   -0.5056963606   -1.3932872906
H        1.8714720523    1.0948825963   -0.5268359321
H       -1.0685841483   -2.8226906419    1.1151969271
19   
torsion grid (-135,)
C        0.3948339499    1.8753506245    3.4985335006
C        0.4316377589    0.6081601138    2.8170776524
C        0.0019137229    2.7971863155    2.5763045355
C        0.0530878377    0.8462731432    1.5231545455
C       -0.0009648146   -1.4485095192    0.3337607812
C       -0.9960769992    0.5670193398   -0.8318135534
C        0.4785037994    0.6401652691   -1.0218718323
C       -0.0790202829    0.0402398758    0.2866184012
O       -0.0840918364   -2.1659889140   -0.6486592023
O       -0.2117326488    2.1893710454    1.3648183353
O        0.1709376037   -1.9667823808    1.5774351534
H        0.6288457687    2.0659565869    4.5377731498
H        0.6974271615   -0.3502231512    3.2336786399
H       -0.1737704839    3.8628220358    2.6033303627
H       -1.5331658765    1.4788794120   -0.5979963225
H       -1.5417615460   -0.1911710680   -1.3821627736
H        0.9428772668   -0.0648653969   -1.7023894626
H        0.9652993097    1.6028615832   -0.9111998057
H        0.1990873250   -2.9354968055    1.4533480511
19   
torsion grid (-120,)
C        0.4646140283    1.8787914887    3.4677804594
C        0.5792160285    0.6326407841    2.7583320502
C       -0.1372184747    2.7535966815    2.6139691009
C        0.0292745152    0.8318494075    1.5209025723
C       -0.0656179853   -1.4638243439    0.3480082164
C       -0.9373317965    0.5749602854   -0.8756195359
C        0.5463059698    0.5940213964   -1.0048680166
C       -0.0924606218    0.0267679189    0.2828366195
O       -0.1407716231   -2.1898411040   -0.6287482941
O       -0.4107186993    2.1334973298    1.4214043102
O        0.0518350318   -1.9697588800    1.6028945968
H        0.7858067614    2.0879325102    4.4798125640
H        1.0008499630   -0.2914509044    3.1224759909
H       -0.4389326541    3.7885701089    2.6848899271
H       -1.4527859879    1.5069497386   -0.6764671680
H       -1.4840920287   -0.1694040146   -1.4434169512
H        1.0146749964   -0.1317325054   -1.6606057724
H        1.0634346004    1.5391299985   -0.8778231203
H        0.0498996066   -2.9404331018    1.4925571440
19   
torsion grid (-105,)
C        0.5258432281    1.9032694544    3.4481085563
C        0.7416903050    0.7087287034    2.6782586214
C       -0.2965477218    2.6950004762    2.7021182498
C        0.0257672429    0.8502143681    1.5210053699
C       -0.1591094792   -1.4450482162    0.3722745676
C       -0.8762327419    0.6255482138   -0.9032581154
C        0.6095528905    0.5560084388   -0.9883074805
C       -0.1026489312    0.0448449703    0.2842723098
O       -0.2504717024   -2.1841225332   -0.5933868733
O       -0.6128926527    2.0700522335    1.5241029381
O       -0.0944675074   -1.9297814327    1.6388002536
H        0.9283082830    2.1364260645    4.4252378352
H        1.3337690710   -0.1515244156    2.9548247320
H       -0.7375784181    3.6702705007    2.8492374072
H       -1.3441257196    1.5876551814   -0.7323635964
H       -1.4478197276   -0.0925922823   -1.4803430637
H        1.0534541124   -0.2039064021   -1.6221753944
H        1.1795858312    1.4696653987   -0.8556833201
H       -0.1465421010   -2.9010020497    1.5483795222
19   
torsion grid (-90,)
C        0.5576896009    1.9079720301    3.4116504987
C        0.9300901519    0.8245451036    2.5448626374
C       -0.5034064770    2.5242071684    2.8138461697
C        0.0677487977    0.8513203160    1.4843639240
C       -0.2381704868   -1.4573236601    0.3979385384
C       -0.7717445258    0.6247943728   -0.9529607160
C        0.7059543882    0.4463050182   -1.0006520471
C       -0.0667315911    0.0220192406    0.2657135314
O       -0.3439162830   -2.2227853445   -0.5456584522
O       -0.8194518440    1.8930895592    1.6411029718
O       -0.2637562556   -1.8935944700    1.6825665854
H        1.0184601593    2.1893181980    4.3495264896
H        1.7240103169    0.1058420944    2.6962482579
H       -1.1175483006    3.3755470032    3.0699954491
H       -1.1762632625    1.6205483537   -0.8139641478
H       -1.3814263869   -0.0637478900   -1.5271347456
H        1.1046739792   -0.3608741093   -1.6055864269
H        1.3401930612    1.3181663389   -0.8796309289
H       -0.3862550661   -2.8609540914    1.6270886604
19   
torsion grid (-75,)
C        0.6108779065    1.9347819760    3.3760300876
C        1.0929776555    1.0017287504    2.3959248212
C       -0.6312963015    2.3151953445    2.9554553970
C        0.1152745198    0.8821657788    1.4480790821
C       -0.3124101348   -1.4221852761    0.4080211022
C       -0.6663896321    0.6610140070   -1.0012474201
C        0.7975421993    0.3887759068   -1.0060692696
C       -0.0230712050    0.0359910718    0.2443878851
O       -0.3975974603   -2.2165960535   -0.5132615857
O       -0.9533531095    1.6828422746    1.7868971533
O       -0.4854420047   -1.7942184927    1.7010293639
H        1.1191552762    2.2760134105    4.2683365055
H        2.0404049062    0.4789097845    2.3962573057
H       -1.3752240826    2.9967095098    3.3427427344
H       -1.0121851096    1.6818812522   -0.8831926242
H       -1.3054933579    0.0048345850   -1.5814098327
H        1.1553787097   -0.4538680085   -1.5877430692
H        1.4836793388    1.2209405992   -0.8906560147
H       -0.6809434190   -2.7506666058    1.6764021811
19   
torsion grid (-60,)
C        0.6140001380    1.9862579979    3.3336243704
C        1.1261560164    1.1403985675    2.2907886328
C       -0.7096418006    2.1698553218    3.0531617044
C        0.0823658461    0.8746694714    1.4491572654
C       -0.4286458051   -1.4174167799    0.4347463216
C       -0.6101268662    0.6545272521   -1.0296751543
C        0.8370490507    0.3045807702   -0.9599891039
C       -0.0557093572    0.0201125359    0.2532606766
O       -0.5479662226   -2.2223620255   -0.4731295713
O       -1.0531298169    1.5015336515    1.9113172118
O       -0.6324238357   -1.7533437610    1.7328884972
H        1.1559922525    2.4003373090    4.1737036628
H        2.1369286170    0.7697117574    2.1809520425
H       -1.5040404317    2.7248440628    3.5316062499
H       -0.9026683182    1.6955305879   -0.9460759779
H       -1.2557040454    0.0224262282   -1.6292456548
H        1.1740104640   -0.5663519973   -1.5115084744
H        1.5607649160    1.1023525340   -0.8326284009
H       -0.8786065704   -2.6982868096    1.7278930521
19   
torsion grid (-45,)
C        0.6205109321    2.0553666616    3.2882404944
C        1.1373599698    1.2700388045    2.2004020926
C       -0.7357927040    2.0650591734    3.1338211038
C        0.0612172084    0.8614729004    1.4631749944
C       -0.5168652773   -1.4012904140    0.4235103533
C       -0.5442721647    0.6788387203   -1.0456639038
C        0.8809381161    0.2584157908   -0.9104317741
C       -0.0781134717    0.0201146201    0.2591603101
O       -0.6912011269   -2.1839565833   -0.4946805042
O       -1.0957711010    1.3483294461    2.0266533624
O       -0.7026283383   -1.7508217201    1.7204699755
H        1.1809807622    2.5425352907    4.0752761810
H        2.1725622194    1.0297268429    1.9965263301
H       -1.5470978858    2.5141622094    3.6888638377
H       -0.7851212717    1.7340831947   -0.9751581262
H       -1.1928764211    0.0783377999   -1.6738773682
H        1.1999053338   -0.6284323594   -1.4468453005
H        1.6359469120    1.0215281061   -0.7560180810
H       -0.9880450111   -2.6845470449    1.7072291616
19   
torsion grid (-30,)
C        0.6066201183    2.1373445730    3.2507040886
C        1.1244608195    1.3979734863    2.1310089675
C       -0.7486499983    1.9825970237    3.2093341059
C        0.0491009340    0.8441627887    1.4935414903
C       -0.5968536735   -1.3813420016    0.4127135333
C       -0.4766613829    0.7108157921   -1.0399031492
C        0.9197164813    0.2151854185   -0.8524738186
C       -0.0956887300    0.0228340971    0.2764689714
O       -0.8399881133   -2.1238970532   -0.5229065438
O       -1.1081248959    1.2072505993    2.1419572009
O       -0.7421359125   -1.7687390456    1.7037191267
H        1.1671119719    2.7010456371    3.9848002366
H        2.1618934533    1.2788808856    1.8479859865
H       -1.5601048996    2.3364433705    3.8292183824
H       -0.6607405875    1.7775753963   -0.9713291512
H       -1.1318423083    0.1483066993   -1.6959457245
H        1.2128156879   -0.6846028516   -1.3818279876
H        1.7077787386    0.9375432653   -0.6705757424
H       -1.0661050349   -2.6893434926    1.6716690853
19   
torsion grid (-15,)
C        0.5739398872    2.2076597703    3.2045518411
C        1.0897040793    1.5029881711    2.0616680804
C       -0.7518543886    1.8930675839    3.2741527521
C        0.0440859510    0.8017812787    1.5261777559
C       -0.6813518418   -1.3901718369    0.4221244875
C       -0.4137783536    0.6947810949   -1.0243673631
C        0.9465403606    0.1192461182   -0.7935331457
C       -0.1140751293   -0.0089377602    0.3028940507
O       -1.0069353518   -2.0879047978   -0.5228466639
O       -1.0958077502    1.0503371987    2.2537564013
O       -0.7720074964   -1.8187136859    1.7046732761
H        1.1185270180    2.8522824316    3.8817853473
H        2.1105032855    1.5017289065    1.7038346391
H       -1.5487823398    2.1599000946    3.9535301769
H       -0.5347468330    1.7709400230   -0.9626838562
H       -1.0810098839    0.1697746481   -1.6991614040
H        1.2041987085   -0.7975388506   -1.3118310017
H        1.7702064789    0.7952287663   -0.5930053918
H       -1.1385079737   -2.7226282555    1.6587149951
19   
torsion grid (0,)
C        0.5301749292    2.2798629980    3.1758770389
C        1.0366902721    1.6192638290    2.0033385237
C       -0.7328515604    1.7996536685    3.3631483584
C        0.0522750197    0.7714606787    1.5709821997
C       -0.7465637115   -1.3921336316    0.4535699718
C       -0.3451778956    0.6752436280   -0.9919420147
C        0.9757302690    0.0257252039   -0.7225673880
C       -0.1214598455   -0.0345660497    0.3449882067
O       -1.1599210303   -2.0390446216   -0.4931869085
O       -1.0467718233    0.8944745975    2.3874220286
O       -0.7669607635   -1.8707938117    1.7208779070
H        1.0421019880    3.0039806273    3.7958041227
H        2.0159159120    1.7455379385    1.5616934678
H       -1.4967507145    1.9731547185    4.1075071468
H       -0.4061873626    1.7567369301   -0.9365164461
H       -1.0224920031    0.1850195938   -1.6827213815
H        1.1961837314   -0.9067765418   -1.2299143005
H        1.8328744553    0.6526941863   -0.5038514736
H       -1.1722794180   -2.7573848982    1.6641216584
19   
torsion grid (15,)
C        0.4901941225    2.3425073634    3.1309909968
C        0.9648283712    1.7452028366    1.9127329297
C       -0.6798017732    1.7089190520    3.4314606786
C        0.0602819370    0.7746666385    1.5694662854
C       -0.8338302770   -1.3438764501    0.4224342801
C       -0.2563010923    0.6974628768   -1.0041806287
C        1.0073014507   -0.0424849138   -0.6897271562
C       -0.1324501602   -0.0219301803    0.3374921502
O       -1.3407896338   -1.9151820763   -0.5273920210
O       -0.9654424440    0.7656481630    2.4826785702
O       -0.7950133273   -1.8937631043    1.6596577898
H        0.9634654988    3.1275185273    3.7058891791
H        1.8721289259    1.9979205955    1.3805299206
H       -1.3861806332    1.7855074438    4.2454940483
H       -0.2448063739    1.7805287340   -0.9481532627
H       -0.9397487837    0.2553456158   -1.7209662863
H        1.1812599697   -0.9874903139   -1.1923806797
H        1.8998299690    0.5180130723   -0.4337354434
H       -1.2524335988   -2.7531163187    1.5829792034
19   
torsion grid (30,)
C        0.4241435802    2.3953334866    3.1033171872
C        0.8329831890    1.8858118692    1.8234802100
C       -0.5878256426    1.5850908464    3.5270380380
C        0.0538705242    0.7862189249    1.5691348113
C       -0.8979629856   -1.3106744352    0.3969722838
C       -0.1347957175    0.6813178038   -1.0088065422
C        1.0665838153   -0.1264492420   -0.6235583322
C       -0.1283787451   -0.0252517467    0.3415925089
O       -1.4598695156   -1.8126180407   -0.5611495704
O       -0.8351909839    0.6105222790    2.5971825867
O       -0.8438562653   -1.9235510762    1.6029729185
H        0.8354692556    3.2434464973    3.6346437392
H        1.6125646267    2.2845059449    1.1874864960
H       -1.1966661648    1.5466603339    4.4186452300
H       -0.0669433498    1.7628222101   -0.9633563395
H       -0.8030233832    0.2711123298   -1.7580393766
H        1.2147549001   -1.0834272522   -1.1124990763
H        1.9733515655    0.3807166636   -0.3108921013
H       -1.3450835494   -2.7553805216    1.5001017339
19   
torsion grid (45,)
C       -0.2319720655    2.3030726662    3.0045790339
C       -0.6844665801    1.8817175074    1.7072731299
C        0.6557388089    1.3553551652    3.4217095462
C       -0.0543811983    0.6946812819    1.4348620367
C        0.4817306937   -1.5407266564    0.2532018765
C       -0.9994152523    0.1436546229   -0.8953207557
C        0.3929072901    0.6278544547   -1.1105372711
C        0.0630806985   -0.1054426033    0.1938146342
O        0.9272465623   -2.1631972525   -0.6957072345
O        0.7889430394    0.3803031967    2.4706933079
O        0.2528384091   -2.1222634695    1.4544828631
H       -0.5366594621    3.1854057327    3.5517574480
H       -1.3968946611    2.3945294088    1.0748044506
H        1.2357884281    1.2148009621    4.3223352639
H       -1.7809191997    0.8534835751   -0.6466523527
H       -1.3261844711   -0.7282849909   -1.4515286186
H        1.0161419793    0.0871851720   -1.8147833409
H        0.5967938211    1.6872499235   -0.9992300246
H        0.5347334379   -3.0521264521    1.3565111001
19   
torsion grid (60,)
C       -0.2896559538    2.2508731671    3.0380038977
C       -0.8109853307    1.7679712134    1.7882124702
C        0.7564036746    1.4336002181    3.3517051013
C       -0.0561354776    0.6794567464    1.4385749769
C        0.3868029694   -1.5731483690    0.2764154440
C       -0.9469186378    0.1995486299   -0.9304416308
C        0.4815275405    0.5907470892   -1.0924824751
C        0.0484522008   -0.1178033102    0.1976655617
O        0.7511587206   -2.2470515695   -0.6718794174
O        0.9243267380    0.4843406203    2.3817137712
O        0.1960231153   -2.1020978419    1.5088467534
H       -0.6533933085    3.0849399532    3.6234528318
H       -1.6527853486    2.1711595083    1.2417192901
H        1.4387265516    1.3777865750    4.1877392071
H       -1.6859333385    0.9652665301   -0.7227959346
H       -1.3071361361   -0.6524252526   -1.4963955378
H        1.0955273127    0.0076665098   -1.7705102704
H        0.7479986415    1.6354200431   -0.9741119938
H        0.4244879358   -3.0482523393    1.4301747689
19   
torsion grid (75,)
C       -0.3503572867    2.2012381619    3.0738240973
C       -0.9037480655    1.6725497500    1.8561950708
C        0.8154352679    1.5242785398    3.2830449384
C       -0.0425259657    0.7024384724    1.4196140113
C        0.3120449572   -1.5643737385    0.2699774237
C       -0.8942818629    0.2811405893   -0.9756525520
C        0.5600542303    0.5842965325   -1.0959707691
C        0.0429056270   -0.0951730660    0.1796589295
O        0.5867893947   -2.2755210071   -0.6812357063
O        1.0271653580    0.6198995539    2.2796383427
O        0.1820526236   -2.0536922125    1.5269244760
H       -0.7694826584    2.9722040972    3.7068182635
H       -1.8340019106    1.9631117750    1.3870981010
H        1.5670271183    1.5512165596    4.0590475141
H       -1.5862577475    1.0953999159   -0.7926101844
H       -1.2887206146   -0.5485588088   -1.5516335594
H        1.1572670423   -0.0371843721   -1.7544596786
H        0.8854977496    1.6115515526   -0.9721126383
H        0.3638907800   -3.0108004914    1.4604970542
19   
torsion grid (90,)
C       -0.3993717222    2.1219547659    3.1186250442
C       -0.9732456921    1.5656063225    1.9228393288
C        0.8549368406    1.5934595189    3.2151704511
C       -0.0306687835    0.7341968457    1.3834291185
C        0.2316074052   -1.5391710258    0.2333077696
C       -0.8546101919    0.3750899100   -1.0323157423
C        0.6183361209    0.5917128013   -1.1193000552
C        0.0310268287   -0.0590396668    0.1405409460
O        0.4109534528   -2.2745169527   -0.7222309115
O        1.1020779581    0.7560619235    2.1629118034
O        0.1705197694   -2.0038619004    1.5051809126
H       -0.8605776741    2.8142647807    3.8105628420
H       -1.9649767451    1.7453041494    1.5298078234
H        1.6564978649    1.6979641801    3.9324341307
H       -1.4973643553    1.2308020250   -0.8584295405
H       -1.2840934861   -0.4280325613   -1.6207482204
H        1.1914980661   -0.0629960285   -1.7667168516
H        1.0023571984    1.5974865499   -0.9867633253
H        0.3061632722   -2.9689196643    1.4438126540
19   
torsion grid (105,)
C       -0.4487247556    2.0664318591    3.1716813637
C       -1.0327233054    1.4787930769    1.9962617599
C        0.8650832459    1.6965552993    3.1637899735
C       -0.0345740076    0.7939455331    1.3609103591
C        0.1468145717   -1.4931400008    0.2316618529
C       -0.8075924332    0.4676791072   -1.0794129562
C        0.6782221188    0.6006416195   -1.1202846359
C        0.0141586710   -0.0062870006    0.1223570667
O        0.2475775027   -2.2519638785   -0.7170036627
O        1.1383532971    0.9274552391    2.0669051940
O        0.1336512001   -1.9322654788    1.5143472127
H       -0.9399852651    2.6769291533    3.9178692898
H       -2.0630931123    1.5437281259    1.6723848725
H        1.6980704273    1.8858985815    3.8257870296
H       -1.4050071931    1.3595199323   -0.9252393616
H       -1.2623395272   -0.3141532381   -1.6775525702
H        1.2327319872   -0.0900821292   -1.7459836806
H        1.1159590564    1.5834695225   -0.9823800515
H        0.2262209983   -2.9031041376    1.4654611248
19   
torsion grid (120,)
C       -0.4739224504    1.9975278446    3.1930650848
C       -1.0676397162    1.3565421882    2.0515577626
C        0.8723093016    1.8030019664    3.0757718584
C       -0.0426044039    0.8228638982    1.3215683898
C        0.0722158807   -1.4824623754    0.2253840657
C       -0.7462121775    0.5028797320   -1.1470553488
C        0.7453310712    0.5626845150   -1.1283614294
C        0.0024230569    0.0070040940    0.0926279011
O        0.1094088404   -2.2612194156   -0.7117789144
O        1.1555095183    1.0922390342    1.9428288255
O        0.0915463295   -1.8988748662    1.5158432283
H       -0.9791831458    2.5288912001    3.9888595218
H       -2.1196763861    1.2913733449    1.8065132773
H        1.7237154815    2.0952638737    3.6738273853
H       -1.3048558951    1.4242183554   -1.0229639948
H       -1.2140699262   -0.2643922615   -1.7540123156
H        1.2891416258   -0.1627770165   -1.7231680910
H        1.2274768468    1.5235412393   -0.9844662078
H        0.1458510554   -2.8732170089    1.4809713805
19   
torsion grid (135,)
C       -0.4663575977    1.9371258723    3.2288008397
C       -1.0690934939    1.2145588534    2.1430303984
C        0.8763187731    1.9392799556    2.9800501190
C       -0.0546626496    0.8341849199    1.3095663733
C       -0.0184108803   -1.4823719989    0.2251334672
C       -0.6840176755    0.5314138624   -1.1894461052
C        0.8061053799    0.5157815832   -1.1057419193
C       -0.0131728079    0.0082448752    0.0858136739
O       -0.0197902797   -2.2648308199   -0.7099526658
O        1.1480418276    1.2715644228    1.8186417335
O       -0.0137021501   -1.8982471758    1.5161047387
H       -0.9634624165    2.3922420345    4.0754009630
H       -2.1196492052    0.9978304043    2.0000498468
H        1.7302624796    2.3571890785    3.4939262993
H       -1.2006296436    1.4799322198   -1.0898155904
H       -1.1646735158   -0.2162343079   -1.8108814692
H        1.3370953181   -0.2409589011   -1.6722657809
H        1.3317485905    1.4508537667   -0.9463791726
H       -0.0031100776   -2.8740539048    1.4801685978
19   
torsion grid (150,)
C       -0.4354734418    1.9139193750    3.2678729389
C       -1.0086989978    1.0629906162    2.2625379847
C        0.8465534536    2.1604225718    2.8681927569
C       -0.0388962715    0.8503643316    1.3230657509
C       -0.1030263758   -1.4463644714    0.1821677792
C       -0.5754797568    0.6326482291   -1.2109144123
C        0.9036900274    0.5219863981   -1.0614093568
C        0.0069899050    0.0428473771    0.0847569739
O       -0.1174240030   -2.1992568108   -0.7771232723
O        1.1088529148    1.5183763230    1.6891431833
O       -0.1817446933   -1.9033235589    1.4570789879
H       -0.9127597229    2.2911322072    4.1628310214
H       -2.0084821097    0.6499193700    2.2438230349
H        1.6592366007    2.7430690464    3.2778155309
H       -1.0373360378    1.6087077901   -1.1069838278
H       -1.0752217833   -0.0709789963   -1.8677983266
H        1.4112899505   -0.2570645784   -1.6189494493
H        1.4795711454    1.4180182142   -0.8598426099
H       -0.2345708190   -2.8757745250    1.3842108093
19   
torsion grid (165,)
C       -0.4027620244    1.8658710295    3.3044267647
C       -0.8735343075    0.8301562631    2.4266016381
C        0.7155280970    2.3826815164    2.7182861834
C       -0.0041546112    0.7801900484    1.3720216927
C       -0.2058791449   -1.4790289076    0.1585744517
C       -0.4826588390    0.6656019172   -1.1756653648
C        0.9791531315    0.4416883984   -1.0031620110
C        0.0357345526   -0.0053208162    0.1169727971
O       -0.1942272636   -2.2026231193   -0.8230685958
O        0.9752350826    1.7335432331    1.5403519349
O       -0.4539881954   -1.9634807102    1.4020351032
H       -0.8385034765    2.1798081706    4.2439387530
H       -1.7338612144    0.1911973951    2.5678022686
H        1.4106097308    3.1651333789    2.9866509028
H       -0.8746284736    1.6686567942   -1.0433401479
H       -1.0233091450    0.0216381137   -1.8608130619
H        1.4367002744   -0.3597986617   -1.5721784003
H        1.6142647662    1.2881223052   -0.7706248538
H       -0.5875006502   -2.9239582546    1.2851061793
19   
torsion grid (180,)
C       -0.3528448885    1.8682937589    3.3579912380
C       -0.7150676055    0.7298892105    2.5574397179
C        0.5764949124    2.5610389719    2.6408880274
C        0.0284809360    0.8015643470    1.4108281280
C       -0.2589214274   -1.4274127307    0.1487031102
C       -0.3574527577    0.7541592339   -1.1488089929
C        1.0797985511    0.4330996213   -0.9343917709
C        0.0704282279    0.0280195612    0.1478284441
O       -0.2678830414   -2.1260693549   -0.8506961260
O        0.8226512427    1.9260142189    1.4506239921
O       -0.5575660107   -1.9319701844    1.3735960223
H       -0.7339425791    2.1296230727    4.3365626203
H       -1.4206365034   -0.0483654872    2.8065467680
H        1.1420124818    3.4647332060    2.8162922375
H       -0.6853468370    1.7788255216   -1.0086704652
H       -0.9166734837    0.1593821920   -1.8627787374
H        1.5032691990   -0.3873213262   -1.5028260495
H        1.7575968991    1.2342859372   -0.6652254559
H       -0.7431193016   -2.8796258140    1.2259200827
