
  -OEChem-12102412483D

 68 71  0     1  0  0  0  0  0999 V2000
   -2.3005    1.0405    0.2346 C   0  0  0  0  0  0  0  0  0  0  0  0
   -2.2991    0.5524    1.6873 C   0  0  0  0  0  0  0  0  0  0  0  0
   -1.0702    1.0491    2.4697 C   0  0  0  0  0  0  0  0  0  0  0  0
   -1.0725    0.6065    3.9113 C   0  0  0  0  0  0  0  0  0  0  0  0
   -0.2895   -0.4631    4.3397 C   0  0  0  0  0  0  0  0  0  0  0  0
   -0.2845   -0.8867    5.6795 C   0  0  0  0  0  0  0  0  0  0  0  0
   -1.1137   -0.2332    6.6005 C   0  0  0  0  0  0  0  0  0  0  0  0
   -1.9036    0.8395    6.1961 C   0  0  0  0  0  0  0  0  0  0  0  0
   -1.8692    1.2731    4.8646 C   0  0  0  0  0  0  0  0  0  0  0  0
   -2.5847    2.3559    4.4119 O   0  0  0  0  0  0  0  0  0  0  0  0
   -3.0405    3.3092    5.3776 C   0  0  0  0  0  0  0  0  0  0  0  0
   -3.2157    4.6535    4.6838 C   0  0  0  0  0  0  0  0  0  0  0  0
   -1.9263    5.1558    4.0273 C   0  0  0  0  0  0  0  0  0  0  0  0
   -0.8559    5.2383    4.9771 O   0  0  0  0  0  0  0  0  0  0  0  0
    0.1147    4.2374    4.9185 C   0  0  0  0  0  0  0  0  0  0  0  0
    0.7567    3.9031    3.7211 C   0  0  0  0  0  0  0  0  0  0  0  0
    1.7061    2.8725    3.7017 C   0  0  0  0  0  0  0  0  0  0  0  0
    2.0286    2.1969    4.8770 C   0  0  0  0  0  0  0  0  0  0  0  0
    1.4213    2.5812    6.0839 C   0  0  0  0  0  0  0  0  0  0  0  0
    0.4603    3.5909    6.1122 C   0  0  0  0  0  0  0  0  0  0  0  0
    1.9192    1.7093    7.2191 C   0  0  0  0  0  0  0  0  0  0  0  0
    3.1636    1.0122    6.6137 C   0  0  0  0  0  0  0  0  0  0  0  0
    2.9328    0.9997    5.0827 C   0  0  2  0  0  0  0  0  0  0  0  0
    2.3635    0.0953    4.8400 H   0  0  0  0  0  0  0  0  0  0  0  0
    4.2049    0.9262    4.2443 C   0  0  0  0  0  0  0  0  0  0  0  0
    4.8861   -0.4809    4.2499 C   0  0  0  0  0  0  0  0  0  0  0  0
    6.0577   -0.5182    3.8020 O   0  0  0  0  0  0  0  0  0  0  0  0
    4.1659   -1.4430    4.6694 O   0  5  0  0  0  0  0  0  0  0  0  0
    0.6039   -1.9431    6.1420 C   0  0  0  0  0  0  0  0  0  0  0  0
    0.8397   -2.2989    7.3858 N   0  0  0  0  0  0  0  0  0  0  0  0
    1.7599   -3.3306    7.3015 C   0  0  0  0  0  0  0  0  0  0  0  0
    2.0532   -3.5597    5.9772 C   0  0  0  0  0  0  0  0  0  0  0  0
    1.3005   -2.6649    5.2332 O   0  0  0  0  0  0  0  0  0  0  0  0
    2.9808   -4.4750    5.2947 C   0  0  0  0  0  0  0  0  0  0  0  0
    3.5099   -5.3892    5.9344 O   0  0  0  0  0  0  0  0  0  0  0  0
    3.2679   -4.2084    3.8443 C   0  0  0  0  0  0  0  0  0  0  0  0
    2.3141   -3.9895    8.5209 C   0  0  0  0  0  0  0  0  0  0  0  0
   -3.1770    0.6737   -0.3120 H   0  0  0  0  0  0  0  0  0  0  0  0
   -2.3118    2.1363    0.1887 H   0  0  0  0  0  0  0  0  0  0  0  0
   -1.4061    0.6977   -0.2990 H   0  0  0  0  0  0  0  0  0  0  0  0
   -2.3215   -0.5441    1.7127 H   0  0  0  0  0  0  0  0  0  0  0  0
   -3.2070    0.8960    2.1958 H   0  0  0  0  0  0  0  0  0  0  0  0
   -1.0364    2.1414    2.4269 H   0  0  0  0  0  0  0  0  0  0  0  0
   -0.1570    0.6853    1.9861 H   0  0  0  0  0  0  0  0  0  0  0  0
    0.3705   -0.9539    3.6303 H   0  0  0  0  0  0  0  0  0  0  0  0
   -1.1135   -0.5599    7.6356 H   0  0  0  0  0  0  0  0  0  0  0  0
   -2.5311    1.3403    6.9248 H   0  0  0  0  0  0  0  0  0  0  0  0
   -2.3018    3.4068    6.1771 H   0  0  0  0  0  0  0  0  0  0  0  0
   -3.9888    2.9703    5.8172 H   0  0  0  0  0  0  0  0  0  0  0  0
   -3.9961    4.5853    3.9147 H   0  0  0  0  0  0  0  0  0  0  0  0
   -3.5550    5.3766    5.4353 H   0  0  0  0  0  0  0  0  0  0  0  0
   -2.0823    6.1629    3.6243 H   0  0  0  0  0  0  0  0  0  0  0  0
   -1.6557    4.4944    3.2015 H   0  0  0  0  0  0  0  0  0  0  0  0
    0.5190    4.4431    2.8082 H   0  0  0  0  0  0  0  0  0  0  0  0
    2.1869    2.6038    2.7641 H   0  0  0  0  0  0  0  0  0  0  0  0
   -0.0365    3.8820    7.0354 H   0  0  0  0  0  0  0  0  0  0  0  0
    2.1424    2.2835    8.1264 H   0  0  0  0  0  0  0  0  0  0  0  0
    1.1517    0.9733    7.4860 H   0  0  0  0  0  0  0  0  0  0  0  0
    4.0601    1.6067    6.8317 H   0  0  0  0  0  0  0  0  0  0  0  0
    3.3281    0.0039    6.9976 H   0  0  0  0  0  0  0  0  0  0  0  0
    4.9336    1.6822    4.5603 H   0  0  0  0  0  0  0  0  0  0  0  0
    3.9748    1.1465    3.1925 H   0  0  0  0  0  0  0  0  0  0  0  0
    3.8328   -3.2603    3.8078 H   0  0  0  0  0  0  0  0  0  0  0  0
    2.3435   -4.0599    3.2754 H   0  0  0  0  0  0  0  0  0  0  0  0
    3.8491   -5.0352    3.4308 H   0  0  0  0  0  0  0  0  0  0  0  0
    1.5176   -4.5020    9.0734 H   0  0  0  0  0  0  0  0  0  0  0  0
    3.0798   -4.7143    8.2449 H   0  0  0  0  0  0  0  0  0  0  0  0
    2.7431   -3.2337    9.1876 H   0  0  0  0  0  0  0  0  0  0  0  0
  1  2  1  0  0  0  0
  1 38  1  0  0  0  0
  1 39  1  0  0  0  0
  1 40  1  0  0  0  0
  2  3  1  0  0  0  0
  2 41  1  0  0  0  0
  2 42  1  0  0  0  0
  3  4  1  0  0  0  0
  3 43  1  0  0  0  0
  3 44  1  0  0  0  0
  4  5  2  0  0  0  0
  4  9  1  0  0  0  0
  5  6  1  0  0  0  0
  5 45  1  0  0  0  0
  6  7  2  0  0  0  0
  6 29  1  0  0  0  0
  7  8  1  0  0  0  0
  7 46  1  0  0  0  0
  8  9  2  0  0  0  0
  8 47  1  0  0  0  0
  9 10  1  0  0  0  0
 10 11  1  0  0  0  0
 11 12  1  0  0  0  0
 11 48  1  0  0  0  0
 11 49  1  0  0  0  0
 12 13  1  0  0  0  0
 12 50  1  0  0  0  0
 12 51  1  0  0  0  0
 13 14  1  0  0  0  0
 13 52  1  0  0  0  0
 13 53  1  0  0  0  0
 14 15  1  0  0  0  0
 15 16  1  0  0  0  0
 15 20  2  0  0  0  0
 16 17  2  0  0  0  0
 16 54  1  0  0  0  0
 17 18  1  0  0  0  0
 17 55  1  0  0  0  0
 18 19  2  0  0  0  0
 18 23  1  0  0  0  0
 19 20  1  0  0  0  0
 19 21  1  0  0  0  0
 20 56  1  0  0  0  0
 21 22  1  0  0  0  0
 21 57  1  0  0  0  0
 21 58  1  0  0  0  0
 22 23  1  0  0  0  0
 22 59  1  0  0  0  0
 22 60  1  0  0  0  0
 23 24  1  0  0  0  0
 23 25  1  0  0  0  0
 25 26  1  0  0  0  0
 25 61  1  0  0  0  0
 25 62  1  0  0  0  0
 26 27  2  0  0  0  0
 26 28  1  0  0  0  0
 29 30  2  0  0  0  0
 29 33  1  0  0  0  0
 30 31  1  0  0  0  0
 31 32  2  0  0  0  0
 31 37  1  0  0  0  0
 32 33  1  0  0  0  0
 32 34  1  0  0  0  0
 34 35  2  0  0  0  0
 34 36  1  0  0  0  0
 36 63  1  0  0  0  0
 36 64  1  0  0  0  0
 36 65  1  0  0  0  0
 37 66  1  0  0  0  0
 37 67  1  0  0  0  0
 37 68  1  0  0  0  0
M  CHG  1  28  -1
M  END
$$$$
