65
1 1 C25FH36N2O
C                    -2.755313598016     1.662253740202     4.988108992628
C                    -2.682347093430     1.614568242930     3.454927654354
C                    -2.377176739784     0.186832396104     2.958008536102
C                    -1.636761585889     2.577217526069     2.905069552695
C                    -1.784695890354     3.265891378045     1.685319209538
C                    -0.761235377244     4.153794126172     1.282513612608
C                     0.390014605858     4.286031690459     2.069373332632
C                     0.471439632441     3.509079040961     3.252136167886
N                    -0.526797627756     2.705474063741     3.637450410088
C                     1.684757927146     3.513946100730     4.162583860185
C                     2.393116054796     2.147891948637     4.077354144709
C                     1.281406251085     3.848200536593     5.609153700742
C                     1.533395639169     5.196018310654     1.658345544247
O                     2.725667519018     4.468418299479     1.351043262622
C                    -0.939503743999     4.964422327456     0.035955892806
C                    -0.624309630960     4.436033855419    -1.225865948929
C                    -0.796427148741     5.194229892769    -2.386745533778
C                    -1.294801816537     6.490109204067    -2.271925842672
C                    -1.612893741024     7.052244344016    -1.038886478602
C                    -1.431980535986     6.279244658866     0.112673184295
F                    -1.482822982786     7.219908597440    -3.389031692859
C                    -2.992916277024     3.068223761046     0.809058767513
N                    -3.942820099497     4.250494149280     0.936693003369
C                    -5.337959730835     4.110613096444     0.328455246312
C                    -5.252825193172     3.738185192465    -1.153935208189
C                    -4.647890242758     4.865120535799    -2.003079683879
C                    -5.404403845835     6.186295745458    -1.803557692348
C                    -5.499112871439     6.575976382286    -0.321096783193
C                    -6.080055895516     5.437077643995     0.535444256376
H                    -2.954131413433     2.676633212537     5.348770503742
H                    -1.814349303749     1.331775571124     5.430969711293
H                    -3.558146092927     1.008006712898     5.341534719776
H                    -3.671396270885     1.903217461805     3.074890245586
H                    -2.365461544814     0.125073224536     1.863642552514
H                    -3.125339508427    -0.518799373514     3.331730003190
H                    -1.394851721892    -0.131082296351     3.319865585538
H                     2.391364721650     4.267107106881     3.812496966064
H                     3.276748480418     2.146025175483     4.722565153635
H                     2.721230251687     1.939534835564     3.054679539132
H                     1.723967577159     1.346483702438     4.404397112298
H                     2.170566139052     3.871758405323     6.246446361184
H                     0.591799332683     3.097945676431     6.003917650898
H                     0.794893577309     4.827806779562     5.673686459408
H                     1.238552136455     5.829953103565     0.816781272803
H                     1.805524225990     5.859736482882     2.481943693753
H                     2.574225690414     3.956865124140     0.540681385644
H                    -0.231672486347     3.425188461334    -1.302095481907
H                    -0.550521499378     4.797162656469    -3.366748305106
H                    -1.978881965816     8.073088821960    -0.988528387703
H                    -1.633759082021     6.719808007588     1.086899938742
H                    -2.726956383032     3.013137461187    -0.244630866755
H                    -3.563331870838     2.179065397110     1.067653117994
H                    -4.041663184473     4.466707384889     1.934780919174
H                    -3.464137078813     5.063562587770     0.523212171690
H                    -5.809138134946     3.306957545759     0.902025704697
H                    -4.715104151847     2.795783504723    -1.293626900251
H                    -6.281941382974     3.546791008341    -1.477842933099
H                    -3.587522085169     5.001064166222    -1.756116637905
H                    -4.668597158682     4.571931029374    -3.056709928588
H                    -4.916373327775     6.985783977983    -2.369271229139
H                    -6.416991778140     6.085191782600    -2.213546827579
H                    -4.504534771110     6.866185890750     0.047134184578
H                    -6.124091038428     7.465556463417    -0.200038976499
H                    -7.123581765976     5.261851776321     0.253089986722
H                    -6.094249132112     5.709267419577     1.598565230858
