65
1 1 C25FH36N2O
C                    -2.651184598925     1.910481773715     5.422904357380
C                    -2.859358971232     1.915416367080     3.902324850493
C                    -2.910393842741     0.473939275080     3.355274695408
C                    -1.773060532350     2.701841256898     3.175163802398
C                    -1.978529290372     3.323652890960     1.926441054583
C                    -0.907244164593     4.039610876497     1.345969575027
C                     0.326933793039     4.086253979332     2.006608396273
C                     0.460456617643     3.364279878630     3.212777067645
N                    -0.576842509248     2.726684671702     3.768659761887
C                     1.770194360407     3.281204644667     3.975562971158
C                     2.039630128448     1.852276693879     4.472869272500
C                     1.745263075728     4.284595990352     5.146139156881
C                     1.483606800070     4.854552549395     1.415774949585
O                     2.261985269937     3.935222517072     0.630510640642
C                    -1.078612415070     4.674022241112     0.002148258388
C                    -0.411351750673     4.137927049141    -1.115535416271
C                    -0.620609920242     4.662276290362    -2.394956448466
C                    -1.494880253780     5.736172868634    -2.541348455368
C                    -2.151246217763     6.310097103151    -1.453546798658
C                    -1.937853274433     5.770295633373    -0.183642833385
F                    -1.709556473014     6.240722722264    -3.772331680218
C                    -3.281488717577     3.183089681074     1.179670641141
N                    -3.066015679175     2.394000410458    -0.100036353127
C                    -4.296042548511     2.185616579228    -0.978313595338
C                    -5.123225254482     1.011999365536    -0.441784599765
C                    -4.427396233395    -0.343451228861    -0.650161514649
C                    -4.009427142869    -0.548671167759    -2.112936565891
C                    -3.136212988834     0.608594173783    -2.617671398707
C                    -3.838072957923     1.961707773449    -2.423872225871
H                    -2.588068468819     2.928918675271     5.816367097818
H                    -1.728987267511     1.392200385314     5.691530293785
H                    -3.492410958970     1.405801668407     5.907961476320
H                    -3.828555435909     2.391668416451     3.713147162158
H                    -3.133793495375     0.442047410334     2.280627473971
H                    -3.683325010027    -0.107286419587     3.867165607519
H                    -1.948547294973    -0.024486204311     3.509754138787
H                     2.582668813354     3.551384060150     3.297246741768
H                     3.010629245876     1.813423825725     4.975905922728
H                     2.060858156923     1.141463739608     3.640463873215
H                     1.269902298365     1.531595764597     5.178375748829
H                     2.692971781171     4.253134108549     5.692409818060
H                     0.938682339257     4.035280248958     5.842440860220
H                     1.588374849436     5.311659782217     4.798283633721
H                     1.109406570485     5.673446922052     0.790292767762
H                     2.091190044294     5.297383258420     2.212043091158
H                     3.066741757934     4.391658028218     0.334464090582
H                     0.297081334928     3.327050790747    -0.973625953102
H                    -0.106686015124     4.261805677290    -3.263494136488
H                    -2.802656251957     7.164901621244    -1.607071876230
H                    -2.427790460318     6.220760358675     0.675833038870
H                    -4.036333099936     2.653234044052     1.752894176238
H                    -3.699077557234     4.138148097045     0.860643591730
H                    -2.344708664557     2.895962217104    -0.640483551397
H                    -2.653195207737     1.487364138186     0.143899968539
H                    -4.853250016734     3.122873293912    -0.900505563783
H                    -5.381968742976     1.165343596796     0.611689484750
H                    -6.071177307357     1.020687243519    -0.990290510773
H                    -3.544151922214    -0.432541075126     0.001016083746
H                    -5.101242307091    -1.142236766969    -0.326938264586
H                    -3.477189456969    -1.498398080999    -2.221216150559
H                    -4.908877432042    -0.619716404522    -2.737391545956
H                    -2.168272372806     0.599247083873    -2.094713284996
H                    -2.899699599947     0.475470576342    -3.677299988810
H                    -4.736282247160     1.999265670884    -3.049995093127
H                    -3.201622080837     2.793802132952    -2.749534702412
