68
-1 1 C29H32NO6
C                     0.084071441814     3.077973925238     1.024168181795
C                    -0.282127146795     2.314081903768     2.301022307635
C                    -1.166144982764     1.086273186546     2.017377718730
C                    -1.575357407560     0.339547657915     3.263190330560
C                    -0.983799062179    -0.870140766881     3.608590598465
C                    -1.385448666201    -1.594515067240     4.745268417045
C                    -2.393346500887    -1.067157866334     5.561695426872
C                    -2.989666911988     0.153977931553     5.245164495780
C                    -2.594786368216     0.849294825519     4.097371241097
O                    -3.150503451159     2.033575007632     3.685261930912
C                    -4.340212187104     2.512343760316     4.319894814399
C                    -5.047752873549     3.435223534536     3.332864321000
C                    -5.448735619033     2.757045468024     2.017902371475
O                    -6.478594726013     1.775061589513     2.181133675654
C                    -6.081456807513     0.505358383490     2.603109902398
C                    -6.717638248730    -0.027122983225     3.729036718637
C                    -6.353299829144    -1.292198296411     4.210868306682
C                    -5.357523068348    -2.022018534074     3.562839138062
C                    -4.759886350103    -1.497687517716     2.404510541917
C                    -5.108980031517    -0.237421986158     1.919442469009
C                    -3.725103556101    -2.465117636489     1.866343695251
C                    -4.025572350150    -3.775446020397     2.636399620497
C                    -4.717501425155    -3.338641475611     3.950607423703
H                    -3.930947495474    -3.129195802681     4.684811354796
C                    -5.607155003709    -4.400899351479     4.588012687764
C                    -4.811843598657    -5.554842290947     5.282613298042
O                    -5.475265505732    -6.584232097117     5.556554322101
O                    -3.588611364706    -5.309676859957     5.534830036530
C                    -0.794542272434    -2.898972261747     5.004929652284
N                     0.068110615748    -3.549185439967     4.254285862748
C                     0.304847052829    -4.739498686790     4.920628489352
C                    -0.444402910393    -4.761299464927     6.074382200341
O                    -1.145062414521    -3.567537152172     6.126978139330
C                    -0.664689397621    -5.778589613008     7.112715344793
O                     0.084037823185    -6.758858396428     7.172893599445
C                    -1.846252037794    -5.583011933776     8.020855829745
C                     1.214211953303    -5.784594499032     4.364890117610
H                     0.719803542786     3.943707953021     1.242674252297
H                     0.625411351454     2.436009063951     0.318683412314
H                    -0.815026992140     3.444119532624     0.513863092074
H                    -0.809931904619     2.978062177468     2.993488338756
H                     0.629548691725     1.984249262094     2.814148340523
H                    -0.629319912541     0.401316111252     1.350852261399
H                    -2.064195106079     1.415675247307     1.481310096891
H                    -0.216482936066    -1.297666887791     2.969282190900
H                    -2.733988280311    -1.628958296406     6.425274269338
H                    -3.781382049882     0.532482742575     5.880594579443
H                    -4.071270956333     3.053817355995     5.237530998097
H                    -4.989673076418     1.677714959480     4.585985214075
H                    -5.943962036974     3.840272964550     3.817658163694
H                    -4.389937905944     4.281564783913     3.094302799345
H                    -4.565398183247     2.323053489530     1.539768329813
H                    -5.869269959589     3.505161489152     1.338558384690
H                    -7.482763427729     0.566893559637     4.223107540552
H                    -6.841831816697    -1.693510507627     5.095718792408
H                    -4.635962710140     0.165871808500     1.026874446968
H                    -3.782145477969    -2.578920884009     0.777067279865
H                    -2.719789434437    -2.096667293013     2.098627857536
H                    -4.724352174491    -4.391035086097     2.055564262816
H                    -3.136644728645    -4.376066017501     2.837650280514
H                    -6.303401714952    -4.829019113968     3.857203862403
H                    -6.228751040391    -3.948121137497     5.373179564600
H                    -2.746362613123    -5.663392062914     7.387167337075
H                    -1.847300094427    -4.578532832584     8.458734413765
H                    -1.834961862085    -6.345389603530     8.802443172007
H                     2.245082762441    -5.412619322031     4.325833246349
H                     1.183702653980    -6.681126259469     4.983957899041
H                     0.914024633904    -6.030523278731     3.340696339514
