
  -OEChem-12102412483D

 68 71  0     1  0  0  0  0  0999 V2000
   -1.3313    0.1973    0.9223 C   0  0  0  0  0  0  0  0  0  0  0  0
   -1.8537   -0.0691    2.3371 C   0  0  0  0  0  0  0  0  0  0  0  0
   -0.9376    0.5248    3.4268 C   0  0  0  0  0  0  0  0  0  0  0  0
   -1.3779    0.1250    4.8145 C   0  0  0  0  0  0  0  0  0  0  0  0
   -0.8621   -1.0222    5.4241 C   0  0  0  0  0  0  0  0  0  0  0  0
   -1.2979   -1.4477    6.6905 C   0  0  0  0  0  0  0  0  0  0  0  0
   -2.2824   -0.7095    7.3703 C   0  0  0  0  0  0  0  0  0  0  0  0
   -2.8082    0.4339    6.7777 C   0  0  0  0  0  0  0  0  0  0  0  0
   -2.3638    0.8470    5.5153 C   0  0  0  0  0  0  0  0  0  0  0  0
   -2.9303    1.9653    4.9399 O   0  0  0  0  0  0  0  0  0  0  0  0
   -2.3702    3.2116    5.4045 C   0  0  0  0  0  0  0  0  0  0  0  0
   -3.0213    4.3460    4.6290 C   0  0  0  0  0  0  0  0  0  0  0  0
   -2.7794    4.2545    3.1271 C   0  0  0  0  0  0  0  0  0  0  0  0
   -1.3718    4.2785    2.9167 O   0  0  0  0  0  0  0  0  0  0  0  0
   -0.9095    3.9783    1.6446 C   0  0  0  0  0  0  0  0  0  0  0  0
    0.4528    3.6641    1.5488 C   0  0  0  0  0  0  0  0  0  0  0  0
    1.0084    3.3142    0.3139 C   0  0  0  0  0  0  0  0  0  0  0  0
    0.2060    3.2742   -0.8291 C   0  0  0  0  0  0  0  0  0  0  0  0
   -1.1530    3.6033   -0.7206 C   0  0  0  0  0  0  0  0  0  0  0  0
   -1.7245    3.9601    0.5040 C   0  0  0  0  0  0  0  0  0  0  0  0
   -1.8206    3.4921   -2.0762 C   0  0  0  0  0  0  0  0  0  0  0  0
   -0.8243    2.6209   -2.8784 C   0  0  0  0  0  0  0  0  0  0  0  0
    0.5664    2.9002   -2.2552 C   0  0  2  0  0  0  0  0  0  0  0  0
    0.9953    3.7740   -2.7644 H   0  0  0  0  0  0  0  0  0  0  0  0
    1.5617    1.7536   -2.4213 C   0  0  0  0  0  0  0  0  0  0  0  0
    1.9724    1.4685   -3.9100 C   0  0  0  0  0  0  0  0  0  0  0  0
    2.5715    0.3742   -4.0870 O   0  0  0  0  0  0  0  0  0  0  0  0
    1.6817    2.3696   -4.7493 O   0  5  0  0  0  0  0  0  0  0  0  0
   -0.7241   -2.6497    7.2755 C   0  0  0  0  0  0  0  0  0  0  0  0
    0.1962   -3.4403    6.7671 N   0  0  0  0  0  0  0  0  0  0  0  0
    0.3941   -4.4362    7.7021 C   0  0  0  0  0  0  0  0  0  0  0  0
   -0.4371   -4.2102    8.7793 C   0  0  0  0  0  0  0  0  0  0  0  0
   -1.1596   -3.0526    8.4999 O   0  0  0  0  0  0  0  0  0  0  0  0
   -0.6794   -4.8993   10.0430 C   0  0  0  0  0  0  0  0  0  0  0  0
   -0.0660   -5.9270   10.3374 O   0  0  0  0  0  0  0  0  0  0  0  0
   -1.7177   -4.2913   10.9691 C   0  0  0  0  0  0  0  0  0  0  0  0
    1.3767   -5.5366    7.4812 C   0  0  0  0  0  0  0  0  0  0  0  0
   -2.0012   -0.2314    0.1690 H   0  0  0  0  0  0  0  0  0  0  0  0
   -1.2436    1.2665    0.7209 H   0  0  0  0  0  0  0  0  0  0  0  0
   -0.3404   -0.2456    0.7744 H   0  0  0  0  0  0  0  0  0  0  0  0
   -1.9478   -1.1499    2.5052 H   0  0  0  0  0  0  0  0  0  0  0  0
   -2.8593    0.3528    2.4572 H   0  0  0  0  0  0  0  0  0  0  0  0
   -0.9197    1.6123    3.3232 H   0  0  0  0  0  0  0  0  0  0  0  0
    0.0865    0.1723    3.2606 H   0  0  0  0  0  0  0  0  0  0  0  0
   -0.1029   -1.6067    4.9121 H   0  0  0  0  0  0  0  0  0  0  0  0
   -2.6309   -1.0344    8.3455 H   0  0  0  0  0  0  0  0  0  0  0  0
   -3.5796    1.0146    7.2765 H   0  0  0  0  0  0  0  0  0  0  0  0
   -1.2876    3.2055    5.2385 H   0  0  0  0  0  0  0  0  0  0  0  0
   -2.5591    3.3185    6.4813 H   0  0  0  0  0  0  0  0  0  0  0  0
   -4.1021    4.3453    4.8128 H   0  0  0  0  0  0  0  0  0  0  0  0
   -2.6193    5.2929    5.0076 H   0  0  0  0  0  0  0  0  0  0  0  0
   -3.2609    5.1008    2.6175 H   0  0  0  0  0  0  0  0  0  0  0  0
   -3.2036    3.3249    2.7293 H   0  0  0  0  0  0  0  0  0  0  0  0
    1.0526    3.6742    2.4554 H   0  0  0  0  0  0  0  0  0  0  0  0
    2.0603    3.0456    0.2542 H   0  0  0  0  0  0  0  0  0  0  0  0
   -2.7832    4.1943    0.5634 H   0  0  0  0  0  0  0  0  0  0  0  0
   -2.8308    3.0687   -2.0211 H   0  0  0  0  0  0  0  0  0  0  0  0
   -1.9145    4.4918   -2.5253 H   0  0  0  0  0  0  0  0  0  0  0  0
   -1.0679    1.5612   -2.7276 H   0  0  0  0  0  0  0  0  0  0  0  0
   -0.8179    2.8127   -3.9518 H   0  0  0  0  0  0  0  0  0  0  0  0
    1.1613    0.8329   -1.9771 H   0  0  0  0  0  0  0  0  0  0  0  0
    2.4892    1.9780   -1.8760 H   0  0  0  0  0  0  0  0  0  0  0  0
   -2.6917   -4.2375   10.4714 H   0  0  0  0  0  0  0  0  0  0  0  0
   -1.4404   -3.2664   11.2376 H   0  0  0  0  0  0  0  0  0  0  0  0
   -1.7929   -4.9041   11.8685 H   0  0  0  0  0  0  0  0  0  0  0  0
    2.3796   -5.1178    7.3459 H   0  0  0  0  0  0  0  0  0  0  0  0
    1.3802   -6.2270    8.3242 H   0  0  0  0  0  0  0  0  0  0  0  0
    1.1269   -6.0784    6.5627 H   0  0  0  0  0  0  0  0  0  0  0  0
  1  2  1  0  0  0  0
  1 38  1  0  0  0  0
  1 39  1  0  0  0  0
  1 40  1  0  0  0  0
  2  3  1  0  0  0  0
  2 41  1  0  0  0  0
  2 42  1  0  0  0  0
  3  4  1  0  0  0  0
  3 43  1  0  0  0  0
  3 44  1  0  0  0  0
  4  5  2  0  0  0  0
  4  9  1  0  0  0  0
  5  6  1  0  0  0  0
  5 45  1  0  0  0  0
  6  7  2  0  0  0  0
  6 29  1  0  0  0  0
  7  8  1  0  0  0  0
  7 46  1  0  0  0  0
  8  9  2  0  0  0  0
  8 47  1  0  0  0  0
  9 10  1  0  0  0  0
 10 11  1  0  0  0  0
 11 12  1  0  0  0  0
 11 48  1  0  0  0  0
 11 49  1  0  0  0  0
 12 13  1  0  0  0  0
 12 50  1  0  0  0  0
 12 51  1  0  0  0  0
 13 14  1  0  0  0  0
 13 52  1  0  0  0  0
 13 53  1  0  0  0  0
 14 15  1  0  0  0  0
 15 16  1  0  0  0  0
 15 20  2  0  0  0  0
 16 17  2  0  0  0  0
 16 54  1  0  0  0  0
 17 18  1  0  0  0  0
 17 55  1  0  0  0  0
 18 19  2  0  0  0  0
 18 23  1  0  0  0  0
 19 20  1  0  0  0  0
 19 21  1  0  0  0  0
 20 56  1  0  0  0  0
 21 22  1  0  0  0  0
 21 57  1  0  0  0  0
 21 58  1  0  0  0  0
 22 23  1  0  0  0  0
 22 59  1  0  0  0  0
 22 60  1  0  0  0  0
 23 24  1  0  0  0  0
 23 25  1  0  0  0  0
 25 26  1  0  0  0  0
 25 61  1  0  0  0  0
 25 62  1  0  0  0  0
 26 27  2  0  0  0  0
 26 28  1  0  0  0  0
 29 30  2  0  0  0  0
 29 33  1  0  0  0  0
 30 31  1  0  0  0  0
 31 32  2  0  0  0  0
 31 37  1  0  0  0  0
 32 33  1  0  0  0  0
 32 34  1  0  0  0  0
 34 35  2  0  0  0  0
 34 36  1  0  0  0  0
 36 63  1  0  0  0  0
 36 64  1  0  0  0  0
 36 65  1  0  0  0  0
 37 66  1  0  0  0  0
 37 67  1  0  0  0  0
 37 68  1  0  0  0  0
M  CHG  1  28  -1
M  END
$$$$
