
  -OEChem-12122420533D

 68 71  0     1  0  0  0  0  0999 V2000
   -0.1563    1.1556    0.7197 C   0  0  0  0  0  0  0  0  0  0  0  0
   -0.3004    0.7483    2.1893 C   0  0  0  0  0  0  0  0  0  0  0  0
   -1.7802    0.6669    2.6052 C   0  0  0  0  0  0  0  0  0  0  0  0
   -1.9726    0.2114    4.0329 C   0  0  0  0  0  0  0  0  0  0  0  0
   -1.5371   -1.0622    4.4076 C   0  0  0  0  0  0  0  0  0  0  0  0
   -1.7230   -1.5461    5.7135 C   0  0  0  0  0  0  0  0  0  0  0  0
   -2.3440   -0.7367    6.6774 C   0  0  0  0  0  0  0  0  0  0  0  0
   -2.7787    0.5358    6.3238 C   0  0  0  0  0  0  0  0  0  0  0  0
   -2.6132    1.0001    5.0077 C   0  0  0  0  0  0  0  0  0  0  0  0
   -3.0792    2.2385    4.6208 O   0  0  0  0  0  0  0  0  0  0  0  0
   -4.2800    2.7236    5.2338 C   0  0  0  0  0  0  0  0  0  0  0  0
   -5.1465    3.3756    4.1600 C   0  0  0  0  0  0  0  0  0  0  0  0
   -5.4428    2.4082    3.0145 C   0  0  0  0  0  0  0  0  0  0  0  0
   -6.0100    1.2089    3.5562 O   0  0  0  0  0  0  0  0  0  0  0  0
   -5.5281    0.0068    3.0528 C   0  0  0  0  0  0  0  0  0  0  0  0
   -5.2410   -0.1727    1.6941 C   0  0  0  0  0  0  0  0  0  0  0  0
   -4.7077   -1.3882    1.2452 C   0  0  0  0  0  0  0  0  0  0  0  0
   -4.4929   -2.4221    2.1534 C   0  0  0  0  0  0  0  0  0  0  0  0
   -4.8067   -2.2404    3.5089 C   0  0  0  0  0  0  0  0  0  0  0  0
   -5.3238   -1.0320    3.9701 C   0  0  0  0  0  0  0  0  0  0  0  0
   -4.4637   -3.4886    4.2951 C   0  0  0  0  0  0  0  0  0  0  0  0
   -3.4992   -4.2383    3.3448 C   0  0  0  0  0  0  0  0  0  0  0  0
   -3.9100   -3.8049    1.9131 C   0  0  2  0  0  0  0  0  0  0  0  0
   -4.7290   -4.4615    1.5742 H   0  0  0  0  0  0  0  0  0  0  0  0
   -2.7888   -3.8805    0.8549 C   0  0  0  0  0  0  0  0  0  0  0  0
   -1.6823   -2.8120    1.0599 C   0  0  0  0  0  0  0  0  0  0  0  0
   -1.7176   -1.8098    0.2954 O   0  0  0  0  0  0  0  0  0  0  0  0
   -0.8626   -3.0326    2.0082 O   0  5  0  0  0  0  0  0  0  0  0  0
   -1.3351   -2.9064    6.0453 C   0  0  0  0  0  0  0  0  0  0  0  0
   -1.6521   -3.6261    7.1066 N   0  0  0  0  0  0  0  0  0  0  0  0
   -1.1112   -4.8774    6.8734 C   0  0  0  0  0  0  0  0  0  0  0  0
   -0.4671   -4.8687    5.6542 C   0  0  0  0  0  0  0  0  0  0  0  0
   -0.6028   -3.5919    5.1392 O   0  0  0  0  0  0  0  0  0  0  0  0
    0.2173   -5.8709    4.8349 C   0  0  0  0  0  0  0  0  0  0  0  0
    0.3287   -7.0357    5.2358 O   0  0  0  0  0  0  0  0  0  0  0  0
    0.7624   -5.3994    3.5077 C   0  0  0  0  0  0  0  0  0  0  0  0
   -1.2751   -6.0020    7.8417 C   0  0  0  0  0  0  0  0  0  0  0  0
    0.8998    1.2291    0.4307 H   0  0  0  0  0  0  0  0  0  0  0  0
   -0.6345    0.3976    0.0918 H   0  0  0  0  0  0  0  0  0  0  0  0
   -0.6246    2.1310    0.5265 H   0  0  0  0  0  0  0  0  0  0  0  0
    0.2309    1.4520    2.8463 H   0  0  0  0  0  0  0  0  0  0  0  0
    0.1531   -0.2386    2.3233 H   0  0  0  0  0  0  0  0  0  0  0  0
   -2.2649   -0.0502    1.9361 H   0  0  0  0  0  0  0  0  0  0  0  0
   -2.2560    1.6404    2.4584 H   0  0  0  0  0  0  0  0  0  0  0  0
   -1.1028   -1.7095    3.6446 H   0  0  0  0  0  0  0  0  0  0  0  0
   -2.4849   -1.1130    7.6863 H   0  0  0  0  0  0  0  0  0  0  0  0
   -3.2476    1.1696    7.0701 H   0  0  0  0  0  0  0  0  0  0  0  0
   -4.0265    3.4431    6.0241 H   0  0  0  0  0  0  0  0  0  0  0  0
   -4.8332    1.8933    5.6784 H   0  0  0  0  0  0  0  0  0  0  0  0
   -6.0795    3.7106    4.6306 H   0  0  0  0  0  0  0  0  0  0  0  0
   -4.6466    4.2606    3.7475 H   0  0  0  0  0  0  0  0  0  0  0  0
   -4.5147    2.1753    2.4886 H   0  0  0  0  0  0  0  0  0  0  0  0
   -6.1443    2.8602    2.3001 H   0  0  0  0  0  0  0  0  0  0  0  0
   -5.3927    0.6423    0.9923 H   0  0  0  0  0  0  0  0  0  0  0  0
   -4.4063   -1.4960    0.2084 H   0  0  0  0  0  0  0  0  0  0  0  0
   -5.5178   -0.8564    5.0250 H   0  0  0  0  0  0  0  0  0  0  0  0
   -4.0248   -3.2700    5.2729 H   0  0  0  0  0  0  0  0  0  0  0  0
   -5.3757   -4.0778    4.4749 H   0  0  0  0  0  0  0  0  0  0  0  0
   -2.4735   -3.9065    3.5095 H   0  0  0  0  0  0  0  0  0  0  0  0
   -3.5310   -5.3257    3.4762 H   0  0  0  0  0  0  0  0  0  0  0  0
   -3.2266   -3.7477   -0.1405 H   0  0  0  0  0  0  0  0  0  0  0  0
   -2.3446   -4.8831    0.8992 H   0  0  0  0  0  0  0  0  0  0  0  0
    1.6149   -4.7316    3.6867 H   0  0  0  0  0  0  0  0  0  0  0  0
    0.0383   -4.7964    2.9414 H   0  0  0  0  0  0  0  0  0  0  0  0
    1.0990   -6.2661    2.9349 H   0  0  0  0  0  0  0  0  0  0  0  0
   -2.3398   -6.1987    8.0109 H   0  0  0  0  0  0  0  0  0  0  0  0
   -0.7959   -6.9040    7.4602 H   0  0  0  0  0  0  0  0  0  0  0  0
   -0.8358   -5.7354    8.8098 H   0  0  0  0  0  0  0  0  0  0  0  0
  1  2  1  0  0  0  0
  1 38  1  0  0  0  0
  1 39  1  0  0  0  0
  1 40  1  0  0  0  0
  2  3  1  0  0  0  0
  2 41  1  0  0  0  0
  2 42  1  0  0  0  0
  3  4  1  0  0  0  0
  3 43  1  0  0  0  0
  3 44  1  0  0  0  0
  4  5  2  0  0  0  0
  4  9  1  0  0  0  0
  5  6  1  0  0  0  0
  5 45  1  0  0  0  0
  6  7  2  0  0  0  0
  6 29  1  0  0  0  0
  7  8  1  0  0  0  0
  7 46  1  0  0  0  0
  8  9  2  0  0  0  0
  8 47  1  0  0  0  0
  9 10  1  0  0  0  0
 10 11  1  0  0  0  0
 11 12  1  0  0  0  0
 11 48  1  0  0  0  0
 11 49  1  0  0  0  0
 12 13  1  0  0  0  0
 12 50  1  0  0  0  0
 12 51  1  0  0  0  0
 13 14  1  0  0  0  0
 13 52  1  0  0  0  0
 13 53  1  0  0  0  0
 14 15  1  0  0  0  0
 15 16  1  0  0  0  0
 15 20  2  0  0  0  0
 16 17  2  0  0  0  0
 16 54  1  0  0  0  0
 17 18  1  0  0  0  0
 17 55  1  0  0  0  0
 18 19  2  0  0  0  0
 18 23  1  0  0  0  0
 19 20  1  0  0  0  0
 19 21  1  0  0  0  0
 20 56  1  0  0  0  0
 21 22  1  0  0  0  0
 21 57  1  0  0  0  0
 21 58  1  0  0  0  0
 22 23  1  0  0  0  0
 22 59  1  0  0  0  0
 22 60  1  0  0  0  0
 23 24  1  0  0  0  0
 23 25  1  0  0  0  0
 25 26  1  0  0  0  0
 25 61  1  0  0  0  0
 25 62  1  0  0  0  0
 26 27  2  0  0  0  0
 26 28  1  0  0  0  0
 29 30  2  0  0  0  0
 29 33  1  0  0  0  0
 30 31  1  0  0  0  0
 31 32  2  0  0  0  0
 31 37  1  0  0  0  0
 32 33  1  0  0  0  0
 32 34  1  0  0  0  0
 34 35  2  0  0  0  0
 34 36  1  0  0  0  0
 36 63  1  0  0  0  0
 36 64  1  0  0  0  0
 36 65  1  0  0  0  0
 37 66  1  0  0  0  0
 37 67  1  0  0  0  0
 37 68  1  0  0  0  0
M  CHG  1  28  -1
M  END
$$$$
