
  -OEChem-12122420533D

 65 67  0     0  0  0  0  0  0999 V2000
   -2.7553    1.6623    4.9881 C   0  0  0  0  0  0  0  0  0  0  0  0
   -2.6823    1.6146    3.4549 C   0  0  0  0  0  0  0  0  0  0  0  0
   -2.3772    0.1868    2.9580 C   0  0  0  0  0  0  0  0  0  0  0  0
   -1.6368    2.5772    2.9051 C   0  0  0  0  0  0  0  0  0  0  0  0
   -1.7847    3.2659    1.6853 C   0  0  0  0  0  0  0  0  0  0  0  0
   -0.7612    4.1538    1.2825 C   0  0  0  0  0  0  0  0  0  0  0  0
    0.3900    4.2860    2.0694 C   0  0  0  0  0  0  0  0  0  0  0  0
    0.4714    3.5091    3.2521 C   0  0  0  0  0  0  0  0  0  0  0  0
   -0.5268    2.7055    3.6375 N   0  0  0  0  0  0  0  0  0  0  0  0
    1.6848    3.5139    4.1626 C   0  0  0  0  0  0  0  0  0  0  0  0
    2.3931    2.1479    4.0774 C   0  0  0  0  0  0  0  0  0  0  0  0
    1.2814    3.8482    5.6092 C   0  0  0  0  0  0  0  0  0  0  0  0
    1.5334    5.1960    1.6583 C   0  0  0  0  0  0  0  0  0  0  0  0
    2.7257    4.4684    1.3510 O   0  0  0  0  0  0  0  0  0  0  0  0
   -0.9395    4.9644    0.0360 C   0  0  0  0  0  0  0  0  0  0  0  0
   -0.6243    4.4360   -1.2259 C   0  0  0  0  0  0  0  0  0  0  0  0
   -0.7964    5.1942   -2.3867 C   0  0  0  0  0  0  0  0  0  0  0  0
   -1.2948    6.4901   -2.2719 C   0  0  0  0  0  0  0  0  0  0  0  0
   -1.6129    7.0522   -1.0389 C   0  0  0  0  0  0  0  0  0  0  0  0
   -1.4320    6.2792    0.1127 C   0  0  0  0  0  0  0  0  0  0  0  0
   -1.4828    7.2199   -3.3890 F   0  0  0  0  0  0  0  0  0  0  0  0
   -2.9929    3.0682    0.8091 C   0  0  0  0  0  0  0  0  0  0  0  0
   -3.9428    4.2505    0.9367 N   0  3  0  0  0  0  0  0  0  0  0  0
   -5.3380    4.1106    0.3285 C   0  0  0  0  0  0  0  0  0  0  0  0
   -5.2528    3.7382   -1.1539 C   0  0  0  0  0  0  0  0  0  0  0  0
   -4.6479    4.8651   -2.0031 C   0  0  0  0  0  0  0  0  0  0  0  0
   -5.4044    6.1863   -1.8036 C   0  0  0  0  0  0  0  0  0  0  0  0
   -5.4991    6.5760   -0.3211 C   0  0  0  0  0  0  0  0  0  0  0  0
   -6.0801    5.4371    0.5354 C   0  0  0  0  0  0  0  0  0  0  0  0
   -2.9541    2.6766    5.3488 H   0  0  0  0  0  0  0  0  0  0  0  0
   -1.8143    1.3318    5.4310 H   0  0  0  0  0  0  0  0  0  0  0  0
   -3.5581    1.0080    5.3415 H   0  0  0  0  0  0  0  0  0  0  0  0
   -3.6714    1.9032    3.0749 H   0  0  0  0  0  0  0  0  0  0  0  0
   -2.3655    0.1251    1.8636 H   0  0  0  0  0  0  0  0  0  0  0  0
   -3.1253   -0.5188    3.3317 H   0  0  0  0  0  0  0  0  0  0  0  0
   -1.3949   -0.1311    3.3199 H   0  0  0  0  0  0  0  0  0  0  0  0
    2.3914    4.2671    3.8125 H   0  0  0  0  0  0  0  0  0  0  0  0
    3.2767    2.1460    4.7226 H   0  0  0  0  0  0  0  0  0  0  0  0
    2.7212    1.9395    3.0547 H   0  0  0  0  0  0  0  0  0  0  0  0
    1.7240    1.3465    4.4044 H   0  0  0  0  0  0  0  0  0  0  0  0
    2.1706    3.8718    6.2464 H   0  0  0  0  0  0  0  0  0  0  0  0
    0.5918    3.0979    6.0039 H   0  0  0  0  0  0  0  0  0  0  0  0
    0.7949    4.8278    5.6737 H   0  0  0  0  0  0  0  0  0  0  0  0
    1.2386    5.8300    0.8168 H   0  0  0  0  0  0  0  0  0  0  0  0
    1.8055    5.8597    2.4819 H   0  0  0  0  0  0  0  0  0  0  0  0
    2.5742    3.9569    0.5407 H   0  0  0  0  0  0  0  0  0  0  0  0
   -0.2317    3.4252   -1.3021 H   0  0  0  0  0  0  0  0  0  0  0  0
   -0.5505    4.7972   -3.3667 H   0  0  0  0  0  0  0  0  0  0  0  0
   -1.9789    8.0731   -0.9885 H   0  0  0  0  0  0  0  0  0  0  0  0
   -1.6338    6.7198    1.0869 H   0  0  0  0  0  0  0  0  0  0  0  0
   -2.7270    3.0131   -0.2446 H   0  0  0  0  0  0  0  0  0  0  0  0
   -3.5633    2.1791    1.0677 H   0  0  0  0  0  0  0  0  0  0  0  0
   -4.0417    4.4667    1.9348 H   0  0  0  0  0  0  0  0  0  0  0  0
   -3.4641    5.0636    0.5232 H   0  0  0  0  0  0  0  0  0  0  0  0
   -5.8091    3.3070    0.9020 H   0  0  0  0  0  0  0  0  0  0  0  0
   -4.7151    2.7958   -1.2936 H   0  0  0  0  0  0  0  0  0  0  0  0
   -6.2819    3.5468   -1.4778 H   0  0  0  0  0  0  0  0  0  0  0  0
   -3.5875    5.0011   -1.7561 H   0  0  0  0  0  0  0  0  0  0  0  0
   -4.6686    4.5719   -3.0567 H   0  0  0  0  0  0  0  0  0  0  0  0
   -4.9164    6.9858   -2.3693 H   0  0  0  0  0  0  0  0  0  0  0  0
   -6.4170    6.0852   -2.2135 H   0  0  0  0  0  0  0  0  0  0  0  0
   -4.5045    6.8662    0.0471 H   0  0  0  0  0  0  0  0  0  0  0  0
   -6.1241    7.4656   -0.2000 H   0  0  0  0  0  0  0  0  0  0  0  0
   -7.1236    5.2619    0.2531 H   0  0  0  0  0  0  0  0  0  0  0  0
   -6.0942    5.7093    1.5986 H   0  0  0  0  0  0  0  0  0  0  0  0
  1  2  1  0  0  0  0
  1 30  1  0  0  0  0
  1 31  1  0  0  0  0
  1 32  1  0  0  0  0
  2  3  1  0  0  0  0
  2  4  1  0  0  0  0
  2 33  1  0  0  0  0
  3 34  1  0  0  0  0
  3 35  1  0  0  0  0
  3 36  1  0  0  0  0
  4  5  2  0  0  0  0
  4  9  1  0  0  0  0
  5  6  1  0  0  0  0
  5 22  1  0  0  0  0
  6  7  2  0  0  0  0
  6 15  1  0  0  0  0
  7  8  1  0  0  0  0
  7 13  1  0  0  0  0
  8  9  2  0  0  0  0
  8 10  1  0  0  0  0
 10 11  1  0  0  0  0
 10 12  1  0  0  0  0
 10 37  1  0  0  0  0
 11 38  1  0  0  0  0
 11 39  1  0  0  0  0
 11 40  1  0  0  0  0
 12 41  1  0  0  0  0
 12 42  1  0  0  0  0
 12 43  1  0  0  0  0
 13 14  1  0  0  0  0
 13 44  1  0  0  0  0
 13 45  1  0  0  0  0
 14 46  1  0  0  0  0
 15 16  2  0  0  0  0
 15 20  1  0  0  0  0
 16 17  1  0  0  0  0
 16 47  1  0  0  0  0
 17 18  2  0  0  0  0
 17 48  1  0  0  0  0
 18 19  1  0  0  0  0
 18 21  1  0  0  0  0
 19 20  2  0  0  0  0
 19 49  1  0  0  0  0
 20 50  1  0  0  0  0
 22 23  1  0  0  0  0
 22 51  1  0  0  0  0
 22 52  1  0  0  0  0
 23 24  1  0  0  0  0
 23 53  1  0  0  0  0
 23 54  1  0  0  0  0
 24 25  1  0  0  0  0
 24 29  1  0  0  0  0
 24 55  1  0  0  0  0
 25 26  1  0  0  0  0
 25 56  1  0  0  0  0
 25 57  1  0  0  0  0
 26 27  1  0  0  0  0
 26 58  1  0  0  0  0
 26 59  1  0  0  0  0
 27 28  1  0  0  0  0
 27 60  1  0  0  0  0
 27 61  1  0  0  0  0
 28 29  1  0  0  0  0
 28 62  1  0  0  0  0
 28 63  1  0  0  0  0
 29 64  1  0  0  0  0
 29 65  1  0  0  0  0
M  CHG  1  23   1
M  END
$$$$
