68
-1 1 C29H32NO6
C                    -0.699095743136     1.789150980373     0.624457207900
C                    -0.779319241111     1.322321000031     2.082009343574
C                    -1.868078396357     0.254213043641     2.286060097176
C                    -1.999502879860    -0.200630559578     3.718463525130
C                    -1.533371789152    -1.452550114549     4.122155292801
C                    -1.677123757408    -1.886635154148     5.454150080876
C                    -2.287975782180    -1.041609650987     6.390418636496
C                    -2.762872169498     0.209604907645     6.002931037031
C                    -2.635680537461     0.623788121527     4.670955447505
O                    -3.141751992534     1.819123159536     4.209429188091
C                    -4.078694979217     2.507225891716     5.040273567522
C                    -4.833648927718     3.536583386326     4.208934047558
C                    -5.559236504419     2.956064937001     2.990918103876
O                    -6.442406661997     1.877307998343     3.345492113821
C                    -5.977445968401     0.613481649209     2.975886243112
C                    -5.705473176642    -0.325817144456     3.972072856950
C                    -5.075682259341    -1.533852678942     3.643716233394
C                    -4.745933397003    -1.799667753006     2.317289442638
C                    -5.141162832602    -0.904526395107     1.307831276027
C                    -5.749365753923     0.306914701653     1.625583082446
C                    -4.673219204111    -1.409939326184    -0.044484234444
C                    -4.274927875087    -2.877881496549     0.250526012009
C                    -3.837414063503    -2.855481287635     1.731066685236
H                    -2.827115986824    -2.426293740787     1.745312686091
C                    -3.667282299080    -4.198843701797     2.426033935944
C                    -2.228794777857    -4.787900271955     2.248878709326
O                    -2.115375421945    -6.021133918146     2.493508353682
O                    -1.313527715239    -3.972560980592     1.925340397735
C                    -1.215536997163    -3.200251861118     5.884463674495
N                    -1.394103666404    -3.767870938586     7.060356598905
C                    -0.757927421707    -4.993900911283     6.972817453538
C                    -0.207520288108    -5.124635601709     5.717209237070
O                    -0.505573541652    -3.963014502001     5.023518351211
C                     0.558694604354    -6.189214575825     5.048312780080
O                     0.917211106228    -7.175502083253     5.703811935917
C                     0.829683327588    -6.026579262771     3.583034138537
C                    -0.750062059737    -5.957313791845     8.113999427449
H                     0.085452980633     2.542238039301     0.484505742745
H                    -0.481668728467     0.949781730707    -0.046359998319
H                    -1.649810587894     2.231378310959     0.301909087414
H                    -0.984987737072     2.177334543122     2.735600392225
H                     0.187801531248     0.909993975758     2.394690441666
H                    -1.639994006671    -0.613518929744     1.659951374827
H                    -2.829094098863     0.654667162259     1.946713214386
H                    -1.112633069774    -2.135479700278     3.384093045997
H                    -2.392883200948    -1.377710994692     7.417368496509
H                    -3.238292532214     0.845800292681     6.740780120672
H                    -3.551823002063     3.003686419705     5.867446451963
H                    -4.789150389614     1.793884978533     5.466137929113
H                    -5.558006098611     4.022620811340     4.874112669511
H                    -4.144840744106     4.314043352724     3.853364787575
H                    -4.825920786691     2.609064707091     2.258790780577
H                    -6.168697221761     3.738285598549     2.523090608617
H                    -5.924476795434    -0.079955094003     5.006929926265
H                    -4.783635913278    -2.218174820960     4.435656763738
H                    -6.007828894914     1.031070726996     0.855223705821
H                    -5.432177378356    -1.306456706472    -0.828877898706
H                    -3.793422911092    -0.834416907698    -0.367460808551
H                    -5.150497037047    -3.530341651166     0.134516222523
H                    -3.481847481156    -3.250292429815    -0.403433851990
H                    -4.405575902160    -4.938262420296     2.097320657532
H                    -3.808013998990    -4.084535396964     3.508937184426
H                     1.170110007060    -5.015821352263     3.340524134666
H                    -0.123686346318    -6.144778978058     3.034033388627
H                     1.557513255677    -6.777383842803     3.266198544249
H                    -1.778057981384    -6.194792198877     8.410096704436
H                    -0.228877054814    -6.872236540019     7.832626120049
H                    -0.254504106982    -5.510710414440     8.984109607887
