68
-1 1 C29H32NO6
C                    -1.331335581441     0.197306109588     0.922320222237
C                    -1.853748711418    -0.069084328274     2.337134709893
C                    -0.937625429490     0.524750923767     3.426814474733
C                    -1.377903858618     0.125045209894     4.814478509575
C                    -0.862149428984    -1.022187026986     5.424070055398
C                    -1.297867816378    -1.447661601936     6.690544116247
C                    -2.282390052133    -0.709501367387     7.370310915623
C                    -2.808201409987     0.433908442580     6.777704047933
C                    -2.363777724096     0.847020755249     5.515298835949
O                    -2.930324339279     1.965349089461     4.939882475159
C                    -2.370188372622     3.211588567380     5.404451688747
C                    -3.021344941515     4.345951632547     4.628980412641
C                    -2.779372110722     4.254471852662     3.127095106741
O                    -1.371848653133     4.278455359790     2.916670413637
C                    -0.909455294525     3.978330303381     1.644560551994
C                     0.452773260883     3.664132874452     1.548768570520
C                     1.008381740787     3.314192874633     0.313857379654
C                     0.205986256292     3.274185352389    -0.829095988510
C                    -1.153012624764     3.603250464853    -0.720554799797
C                    -1.724504882532     3.960093210960     0.503952020968
C                    -1.820599765041     3.492125081565    -2.076215011871
C                    -0.824259732146     2.620875180418    -2.878440778651
C                     0.566373568943     2.900229343378    -2.255242837883
H                     0.995289870136     3.774039525581    -2.764448292069
C                     1.561687082717     1.753603707626    -2.421266335031
C                     1.972411679019     1.468486212164    -3.910022775501
O                     2.571510746735     0.374206764924    -4.086963754141
O                     1.681711824368     2.369576442679    -4.749291682585
C                    -0.724085067972    -2.649680301576     7.275480020508
N                     0.196159763580    -3.440297624305     6.767079836451
C                     0.394089042834    -4.436209314706     7.702063846143
C                    -0.437107948539    -4.210246052492     8.779326510068
O                    -1.159606029932    -3.052561592015     8.499914783212
C                    -0.679401926398    -4.899314861172    10.043028407305
O                    -0.065979015859    -5.926979480842    10.337441154478
C                    -1.717665632216    -4.291302904031    10.969138252760
C                     1.376661969665    -5.536640812152     7.481154908929
H                    -2.001151393874    -0.231433943844     0.169047496193
H                    -1.243581203827     1.266539948703     0.720915529318
H                    -0.340440940797    -0.245626365507     0.774416350753
H                    -1.947811553438    -1.149858977302     2.505217367862
H                    -2.859250055979     0.352827026635     2.457236849004
H                    -0.919692349376     1.612300305824     3.323235920485
H                     0.086474028061     0.172303465361     3.260595266686
H                    -0.102916050839    -1.606738251166     4.912076980336
H                    -2.630876402154    -1.034414190324     8.345547049141
H                    -3.579575171699     1.014560731405     7.276479440463
H                    -1.287579219666     3.205507548631     5.238460323240
H                    -2.559055545061     3.318517411342     6.481291910505
H                    -4.102061862600     4.345328208875     4.812785237753
H                    -2.619300867633     5.292915415231     5.007624534855
H                    -3.260946508059     5.100832205336     2.617508316874
H                    -3.203599700741     3.324901214708     2.729257266711
H                     1.052649144869     3.674223855225     2.455395254101
H                     2.060319089390     3.045620009410     0.254178266114
H                    -2.783222102476     4.194271324941     0.563369895594
H                    -2.830828688842     3.068673556384    -2.021061374211
H                    -1.914505028671     4.491834179381    -2.525344300272
H                    -1.067941202068     1.561154106014    -2.727632597423
H                    -0.817869091811     2.812745179523    -3.951774105992
H                     1.161250363445     0.832923056307    -1.977128595338
H                     2.489212360791     1.978044505838    -1.876012524905
H                    -2.691708815090    -4.237540748430    10.471414160719
H                    -1.440351505613    -3.266410019338    11.237557280876
H                    -1.792881266950    -4.904128738631    11.868475710768
H                     2.379586808597    -5.117752069844     7.345874697391
H                     1.380215987313    -6.227015540228     8.324165284104
H                     1.126932030685    -6.078381928078     6.562716587831
