
  -OEChem-12102412483D

 65 67  0     0  0  0  0  0  0999 V2000
   -2.6512    1.9105    5.4229 C   0  0  0  0  0  0  0  0  0  0  0  0
   -2.8594    1.9154    3.9023 C   0  0  0  0  0  0  0  0  0  0  0  0
   -2.9104    0.4739    3.3553 C   0  0  0  0  0  0  0  0  0  0  0  0
   -1.7731    2.7018    3.1752 C   0  0  0  0  0  0  0  0  0  0  0  0
   -1.9785    3.3237    1.9264 C   0  0  0  0  0  0  0  0  0  0  0  0
   -0.9072    4.0396    1.3460 C   0  0  0  0  0  0  0  0  0  0  0  0
    0.3269    4.0863    2.0066 C   0  0  0  0  0  0  0  0  0  0  0  0
    0.4605    3.3643    3.2128 C   0  0  0  0  0  0  0  0  0  0  0  0
   -0.5768    2.7267    3.7687 N   0  0  0  0  0  0  0  0  0  0  0  0
    1.7702    3.2812    3.9756 C   0  0  0  0  0  0  0  0  0  0  0  0
    2.0396    1.8523    4.4729 C   0  0  0  0  0  0  0  0  0  0  0  0
    1.7453    4.2846    5.1461 C   0  0  0  0  0  0  0  0  0  0  0  0
    1.4836    4.8546    1.4158 C   0  0  0  0  0  0  0  0  0  0  0  0
    2.2620    3.9352    0.6305 O   0  0  0  0  0  0  0  0  0  0  0  0
   -1.0786    4.6740    0.0021 C   0  0  0  0  0  0  0  0  0  0  0  0
   -0.4114    4.1379   -1.1155 C   0  0  0  0  0  0  0  0  0  0  0  0
   -0.6206    4.6623   -2.3950 C   0  0  0  0  0  0  0  0  0  0  0  0
   -1.4949    5.7362   -2.5413 C   0  0  0  0  0  0  0  0  0  0  0  0
   -2.1512    6.3101   -1.4535 C   0  0  0  0  0  0  0  0  0  0  0  0
   -1.9379    5.7703   -0.1836 C   0  0  0  0  0  0  0  0  0  0  0  0
   -1.7096    6.2407   -3.7723 F   0  0  0  0  0  0  0  0  0  0  0  0
   -3.2815    3.1831    1.1797 C   0  0  0  0  0  0  0  0  0  0  0  0
   -3.0660    2.3940   -0.1000 N   0  3  0  0  0  0  0  0  0  0  0  0
   -4.2960    2.1856   -0.9783 C   0  0  0  0  0  0  0  0  0  0  0  0
   -5.1232    1.0120   -0.4418 C   0  0  0  0  0  0  0  0  0  0  0  0
   -4.4274   -0.3435   -0.6502 C   0  0  0  0  0  0  0  0  0  0  0  0
   -4.0094   -0.5487   -2.1129 C   0  0  0  0  0  0  0  0  0  0  0  0
   -3.1362    0.6086   -2.6177 C   0  0  0  0  0  0  0  0  0  0  0  0
   -3.8381    1.9617   -2.4239 C   0  0  0  0  0  0  0  0  0  0  0  0
   -2.5881    2.9289    5.8164 H   0  0  0  0  0  0  0  0  0  0  0  0
   -1.7290    1.3922    5.6915 H   0  0  0  0  0  0  0  0  0  0  0  0
   -3.4924    1.4058    5.9080 H   0  0  0  0  0  0  0  0  0  0  0  0
   -3.8286    2.3917    3.7131 H   0  0  0  0  0  0  0  0  0  0  0  0
   -3.1338    0.4420    2.2806 H   0  0  0  0  0  0  0  0  0  0  0  0
   -3.6833   -0.1073    3.8672 H   0  0  0  0  0  0  0  0  0  0  0  0
   -1.9485   -0.0245    3.5098 H   0  0  0  0  0  0  0  0  0  0  0  0
    2.5827    3.5514    3.2972 H   0  0  0  0  0  0  0  0  0  0  0  0
    3.0106    1.8134    4.9759 H   0  0  0  0  0  0  0  0  0  0  0  0
    2.0609    1.1415    3.6405 H   0  0  0  0  0  0  0  0  0  0  0  0
    1.2699    1.5316    5.1784 H   0  0  0  0  0  0  0  0  0  0  0  0
    2.6930    4.2531    5.6924 H   0  0  0  0  0  0  0  0  0  0  0  0
    0.9387    4.0353    5.8424 H   0  0  0  0  0  0  0  0  0  0  0  0
    1.5884    5.3117    4.7983 H   0  0  0  0  0  0  0  0  0  0  0  0
    1.1094    5.6734    0.7903 H   0  0  0  0  0  0  0  0  0  0  0  0
    2.0912    5.2974    2.2120 H   0  0  0  0  0  0  0  0  0  0  0  0
    3.0667    4.3917    0.3345 H   0  0  0  0  0  0  0  0  0  0  0  0
    0.2971    3.3271   -0.9736 H   0  0  0  0  0  0  0  0  0  0  0  0
   -0.1067    4.2618   -3.2635 H   0  0  0  0  0  0  0  0  0  0  0  0
   -2.8027    7.1649   -1.6071 H   0  0  0  0  0  0  0  0  0  0  0  0
   -2.4278    6.2208    0.6758 H   0  0  0  0  0  0  0  0  0  0  0  0
   -4.0363    2.6532    1.7529 H   0  0  0  0  0  0  0  0  0  0  0  0
   -3.6991    4.1381    0.8606 H   0  0  0  0  0  0  0  0  0  0  0  0
   -2.3447    2.8960   -0.6405 H   0  0  0  0  0  0  0  0  0  0  0  0
   -2.6532    1.4874    0.1439 H   0  0  0  0  0  0  0  0  0  0  0  0
   -4.8533    3.1229   -0.9005 H   0  0  0  0  0  0  0  0  0  0  0  0
   -5.3820    1.1653    0.6117 H   0  0  0  0  0  0  0  0  0  0  0  0
   -6.0712    1.0207   -0.9903 H   0  0  0  0  0  0  0  0  0  0  0  0
   -3.5442   -0.4325    0.0010 H   0  0  0  0  0  0  0  0  0  0  0  0
   -5.1012   -1.1422   -0.3269 H   0  0  0  0  0  0  0  0  0  0  0  0
   -3.4772   -1.4984   -2.2212 H   0  0  0  0  0  0  0  0  0  0  0  0
   -4.9089   -0.6197   -2.7374 H   0  0  0  0  0  0  0  0  0  0  0  0
   -2.1683    0.5992   -2.0947 H   0  0  0  0  0  0  0  0  0  0  0  0
   -2.8997    0.4755   -3.6773 H   0  0  0  0  0  0  0  0  0  0  0  0
   -4.7363    1.9993   -3.0500 H   0  0  0  0  0  0  0  0  0  0  0  0
   -3.2016    2.7938   -2.7495 H   0  0  0  0  0  0  0  0  0  0  0  0
  1  2  1  0  0  0  0
  1 30  1  0  0  0  0
  1 31  1  0  0  0  0
  1 32  1  0  0  0  0
  2  3  1  0  0  0  0
  2  4  1  0  0  0  0
  2 33  1  0  0  0  0
  3 34  1  0  0  0  0
  3 35  1  0  0  0  0
  3 36  1  0  0  0  0
  4  5  2  0  0  0  0
  4  9  1  0  0  0  0
  5  6  1  0  0  0  0
  5 22  1  0  0  0  0
  6  7  2  0  0  0  0
  6 15  1  0  0  0  0
  7  8  1  0  0  0  0
  7 13  1  0  0  0  0
  8  9  2  0  0  0  0
  8 10  1  0  0  0  0
 10 11  1  0  0  0  0
 10 12  1  0  0  0  0
 10 37  1  0  0  0  0
 11 38  1  0  0  0  0
 11 39  1  0  0  0  0
 11 40  1  0  0  0  0
 12 41  1  0  0  0  0
 12 42  1  0  0  0  0
 12 43  1  0  0  0  0
 13 14  1  0  0  0  0
 13 44  1  0  0  0  0
 13 45  1  0  0  0  0
 14 46  1  0  0  0  0
 15 16  2  0  0  0  0
 15 20  1  0  0  0  0
 16 17  1  0  0  0  0
 16 47  1  0  0  0  0
 17 18  2  0  0  0  0
 17 48  1  0  0  0  0
 18 19  1  0  0  0  0
 18 21  1  0  0  0  0
 19 20  2  0  0  0  0
 19 49  1  0  0  0  0
 20 50  1  0  0  0  0
 22 23  1  0  0  0  0
 22 51  1  0  0  0  0
 22 52  1  0  0  0  0
 23 24  1  0  0  0  0
 23 53  1  0  0  0  0
 23 54  1  0  0  0  0
 24 25  1  0  0  0  0
 24 29  1  0  0  0  0
 24 55  1  0  0  0  0
 25 26  1  0  0  0  0
 25 56  1  0  0  0  0
 25 57  1  0  0  0  0
 26 27  1  0  0  0  0
 26 58  1  0  0  0  0
 26 59  1  0  0  0  0
 27 28  1  0  0  0  0
 27 60  1  0  0  0  0
 27 61  1  0  0  0  0
 28 29  1  0  0  0  0
 28 62  1  0  0  0  0
 28 63  1  0  0  0  0
 29 64  1  0  0  0  0
 29 65  1  0  0  0  0
M  CHG  1  23   1
M  END
$$$$
