14   
torsion grid (-165,)
C       -0.0557237989    1.0120669496    0.2554772096
C       -1.2770443471    1.5194426202    0.4763612325
C       -2.3302342484    0.7200045746    1.1782339450
C       -4.0772563875    2.5954958911    0.6260441590
C       -3.7026449892    1.3432684038    1.4267319050
O       -2.1012383836   -0.4159736516    1.5800257303
H        0.7169941188    1.5843607095   -0.2511319919
H        0.1844548982    0.0038695920    0.5845236541
H       -1.5200276534    2.5252380527    0.1464735377
H       -5.1127079603    2.8796059652    0.8380964771
H       -3.9967284150    2.4258321947   -0.4529046292
H       -3.4472846475    3.4529632824    0.8823737168
H       -4.4323826618    0.5435246584    1.2655440730
H       -3.7406884502    1.5620958746    2.5020674049
14   
torsion grid (-150,)
C       -0.0549249995    1.0171892114    0.2625258239
C       -1.2440762021    1.5502651433    0.5767030475
C       -2.3482535099    0.7086226622    1.1376954275
C       -4.1062661269    2.5493552586    0.5692461703
C       -3.6826645240    1.3731628792    1.4600849042
O       -2.1799993987   -0.4823410832    1.3767136536
H        0.7529637312    1.6218795136   -0.1410652198
H        0.1225935695   -0.0457353147    0.4077535312
H       -1.4260914081    2.6111673527    0.4278316101
H       -5.1275247667    2.8560543893    0.8155694381
H       -4.0884786763    2.2769696192   -0.4912841530
H       -3.4646446603    3.4251288150    0.7033779342
H       -4.4342872191    0.5790976840    1.4490703176
H       -3.6108587351    1.7109789864    2.5036939383
14   
torsion grid (-135,)
C       -0.0528712868    1.0342947936    0.2740116166
C       -1.2100901967    1.5679725334    0.6884528739
C       -2.3648763001    0.7068358986    1.0988370290
C       -4.1370666023    2.4957911065    0.5152800710
C       -3.6622026466    1.4028625183    1.4864897062
O       -2.2588184842   -0.5128566975    1.1650366321
H        0.7903618540    1.6544444348   -0.0184360454
H        0.0621384474   -0.0457716757    0.2222890917
H       -1.3322761070    2.6475828900    0.7369699706
H       -5.1089643150    2.8846869808    0.8343825254
H       -4.2520240490    2.1016764962   -0.4996918945
H       -3.4456019484    3.3420037798    0.4701716564
H       -4.4206138735    0.6250738242    1.6049559928
H       -3.4996074177    1.8471982340    2.4791671981
14   
torsion grid (-120,)
C       -0.0395574992    1.0466981639    0.3041608975
C       -1.1816887725    1.5714883208    0.7680285861
C       -2.3811721817    0.7184928267    1.0472809303
C       -4.1723515283    2.4473402644    0.4803012276
C       -3.6385243084    1.4362916938    1.5111389684
O       -2.3448521023   -0.5007036318    0.9262187597
H        0.8357100424    1.6606748501    0.1090770460
H        0.0303253986   -0.0215305418    0.1129694239
H       -1.2614488495    2.6397001357    0.9610887482
H       -5.0828875080    2.9251909586    0.8545563332
H       -4.4161986237    1.9502718126   -0.4639362808
H       -3.4468982960    3.2378120148    0.2654609598
H       -4.3904742620    0.6762987955    1.7358523582
H       -3.4024944352    1.9637694538    2.4457184657
14   
torsion grid (-105,)
C       -0.0162051607    1.0406529445    0.3349214825
C       -1.1444241594    1.5681582216    0.8287709686
C       -2.3884965309    0.7504621176    0.9938775970
C       -4.2218064209    2.4026650395    0.4612196738
C       -3.6090767118    1.4781181890    1.5312386286
O       -2.4272877905   -0.4359957628    0.6887725832
H        0.8899082343    1.6299357682    0.2219987080
H        0.0101174592   -0.0045846962    0.0357259807
H       -1.1826238413    2.6129864042    1.1329593474
H       -5.1012135411    2.9172549287    0.8603523430
H       -4.5326661807    1.8258153132   -0.4150885997
H       -3.5099910974    3.1650418693    0.1281161957
H       -4.3375898785    0.7279641382    1.8480039321
H       -3.3211573065    2.0733206421    2.4070475829
14   
torsion grid (-90,)
C        0.0197971353    1.0149360832    0.3695521350
C       -1.0898960736    1.5571145566    0.8896014492
C       -2.3846295863    0.8064795253    0.9344541851
C       -4.2952284886    2.3588659981    0.4470058949
C       -3.5764712031    1.5343891304    1.5336819966
O       -2.4963920300   -0.3202654439    0.4644410940
H        0.9627164624    1.5545100145    0.3407544138
H       -0.0073908945    0.0067236584   -0.0372752058
H       -1.0760245338    2.5642312841    1.3032067203
H       -5.1645674635    2.8724569772    0.8688921835
H       -4.6385270126    1.7070600016   -0.3615068866
H       -3.6333701210    3.1170231748    0.0146029566
H       -4.2598046924    0.7854916812    1.9426357030
H       -3.2527244243    2.1927784756    2.3478697841
14   
torsion grid (-75,)
C        0.0627289292    0.9756071597    0.4048436691
C       -1.0232598832    1.5318853707    0.9599022203
C       -2.3691330793    0.8839074134    0.8671100242
C       -4.3898225901    2.3131104855    0.4359859476
C       -3.5417594478    1.6079835320    1.5121999413
O       -2.5392862060   -0.1662699712    0.2571799101
H        1.0420482249    1.4419033893    0.4719456801
H       -0.0220094042    0.0318016581   -0.1288654229
H       -0.9513786710    2.4746385571    1.4991887400
H       -5.2497768430    2.8131037586    0.8921157620
H       -4.7565263285    1.5849430847   -0.2923926506
H       -3.8058180197    3.0685495843   -0.1009223649
H       -4.1544718214    0.8587708392    2.0230567884
H       -3.1940477860    2.3318602558    2.2565681790
14   
torsion grid (-60,)
C        0.0369486365    0.9870525989    0.3804296462
C       -1.0648537005    1.5596832422    0.8860470337
C       -2.3753674189    0.8385538218    0.9196685092
C       -4.6981464890    1.7308716593    0.4779608400
C       -3.5735791545    1.5683002599    1.5148282299
O       -2.4954908522   -0.2985092894    0.4762383161
H        0.9912224348    1.5062602446    0.3532705409
H       -0.0094137409   -0.0241887431   -0.0169687588
H       -1.0316261481    2.5704327786    1.2879101930
H       -5.5767782952    2.1979790536    0.9333472114
H       -4.9877525651    0.7550684435    0.0801363120
H       -4.3762394114    2.3589229298   -0.3595236694
H       -3.9373795943    0.9597379989    2.3509228449
H       -3.2778768187    2.5415299724    1.9192242329
14   
torsion grid (-45,)
C        0.0172292822    1.0059421678    0.3527749061
C       -1.1012891888    1.5690919356    0.8312478491
C       -2.3644385866    0.7835068580    0.9952622708
C       -4.8696051925    1.1743136306    0.7998805187
C       -3.5792375360    1.5138083030    1.5573245575
O       -2.4193759083   -0.4096458351    0.7185302043
H        0.9353994091    1.5742537599    0.2303819407
H        0.0217767771   -0.0452599524    0.0740546756
H       -1.1181836505    2.6206709883    1.1111970144
H       -5.7326746419    1.6509899704    1.2746877139
H       -5.0305022807    0.0938077285    0.7854615783
H       -4.8170074557    1.5216495724   -0.2371160358
H       -3.6703221095    1.2029199719    2.6067752710
H       -3.4051556588    2.5949186076    1.5648022572
14   
torsion grid (-30,)
C        0.0481378927    0.9948722199    0.4037910680
C       -1.0690138482    1.5506077899    0.8929052245
C       -2.3780106023    0.8245202618    0.8770073797
C       -4.9124769602    1.1256552599    0.8578204540
C       -3.5760098392    1.5606324138    1.4630843510
O       -2.4727841098   -0.3229399607    0.4570869212
H        0.9991295804    1.5207775736    0.4105521401
H        0.0184072186   -0.0076688252   -0.0165546327
H       -1.0531178574    2.5551872644    1.3122312616
H       -5.7448354354    1.6336987782    1.3545113220
H       -5.0502650100    0.0467116954    0.9592757134
H       -4.9524773955    1.3662376783   -0.2091817764
H       -3.5597858686    1.3606049655    2.5445630347
H       -3.4302845061    2.6420705916    1.3581722606
14   
torsion grid (-15,)
C        0.0649747154    0.9798272225    0.4481981408
C       -1.0533630881    1.5236046722    0.9468676459
C       -2.3899827726    0.8715460553    0.7727920378
C       -4.9320126047    1.0823756252    0.9159711526
C       -3.5749767698    1.6041404381    1.3843061762
O       -2.5147941190   -0.2045887869    0.2008270236
H        1.0358310705    1.4525439548    0.5706860713
H        0.0166053360    0.0406959378   -0.0980097003
H       -1.0196750890    2.4653572724    1.4927993712
H       -5.7447745217    1.6167705492    1.4175536370
H       -5.0331091415    0.0149693606    1.1268578212
H       -5.0474832285    1.2142426117   -0.1639125745
H       -3.4720264840    1.5129341671    2.4759346995
H       -3.4686000438    2.6765486264    1.1743932194
14   
torsion grid (0,)
C        0.0413378592    1.0152559770    0.3944708908
C       -1.0829043764    1.5475704388    0.8919410157
C       -2.3770645552    0.7942068612    0.8891643013
C       -4.8661929663    0.7170907384    1.4605425025
C       -3.5704990547    1.5239342958    1.4855432304
O       -2.4653604670   -0.3394381853    0.4338428321
H        0.9831005330    1.5576359337    0.3939521491
H        0.0278744150    0.0119322156   -0.0247890943
H       -1.0856138338    2.5512020307    1.3152234821
H       -5.6866583401    1.2917516114    1.9014852789
H       -4.7554495437   -0.2158479044    2.0197727332
H       -5.1398147730    0.4504957240    0.4361243798
H       -3.3015253435    1.8135565249    2.5114922035
H       -3.6820546437    2.4735377102    0.9427942598
14   
torsion grid (15,)
C        0.0358726714    1.0301264728    0.3281903384
C       -1.0817834283    1.5728498494    0.8295315393
C       -2.3303634408    0.7681942192    1.0182355822
C       -4.6513501643    0.5960044393    2.0719067329
C       -3.5214318896    1.5114363038    1.6045827630
O       -2.3965214707   -0.4096889690    0.6880787565
H        0.9442422867    1.6111549405    0.1929187801
H        0.0513332181   -0.0198400526    0.0453865741
H       -1.1100414332    2.6220709043    1.1200669819
H       -5.4952234897    1.1844943394    2.4451391243
H       -4.3097809093   -0.0643832297    2.8744588025
H       -5.0022124119   -0.0385923650    1.2544521127
H       -3.1654403356    2.1512289465    2.4227350227
H       -3.8721827126    2.2066715124    0.8272838546
14   
torsion grid (30,)
C        0.0406068631    1.0077285108    0.3726231684
C       -1.0702895099    1.5527928879    0.8873213272
C       -2.3683146831    0.8076997554    0.9169201218
C       -4.6035973064    0.5904948506    2.1297143164
C       -3.5605153373    1.5339211237    1.5266751431
O       -2.4789011055   -0.3125546319    0.4323759509
H        0.9852079158    1.5447125700    0.3530977751
H        0.0131044872    0.0012766035   -0.0384285413
H       -1.0545017941    2.5577222636    1.3058075449
H       -5.4675033907    1.1536106583    2.4960444024
H       -4.1806909605    0.0286741132    2.9684524946
H       -4.9468015251   -0.1327007530    1.3863488696
H       -3.2087128439    2.2583239775    2.2704451813
H       -4.0039743196    2.1300253817    0.7155692108
14   
torsion grid (45,)
C        0.0344858065    0.9758479935    0.4236848167
C       -1.0721963105    1.5186048106    0.9507753263
C       -2.4092136253    0.8610572063    0.8107351156
C       -4.5341036094    0.5928889093    2.1817529138
C       -3.6081803414    1.5640891795    1.4378024765
O       -2.5475113565   -0.1877401048    0.1909695546
H        1.0070886843    1.4498075971    0.5256595665
H       -0.0256686166    0.0368062066   -0.1215840492
H       -1.0235674042    2.4567173955    1.5003714317
H       -5.4224906478    1.1136983546    2.5519924312
H       -4.0217073893    0.1432116278    3.0384970164
H       -4.8527618508   -0.2143793379    1.5181529424
H       -3.2748558851    2.3692794147    2.1009213027
H       -4.1542009637    2.0418380586    0.6132361201
14   
torsion grid (60,)
C        0.0384045734    0.9842405759    0.3853423555
C       -1.0620386748    1.5548297488    0.8962678938
C       -2.3801021990    0.8466676717    0.8997090130
C       -4.1609781060    0.7992668461    2.6924305503
C       -3.5770902814    1.5749279058    1.4992207403
O       -2.5029900638   -0.2862940220    0.4466481573
H        0.9980753410    1.4941425143    0.3805083831
H       -0.0146174012   -0.0154009549   -0.0396517215
H       -1.0224000808    2.5550210564    1.3232586648
H       -5.0587147393    1.2965032302    3.0724027051
H       -3.4380802127    0.7320931392    3.5124040164
H       -4.4263126879   -0.2163782234    2.3884182753
H       -3.3069632426    2.5932801134    1.7961807793
H       -4.3346950829    1.6508475610    0.7105448072
14   
torsion grid (75,)
C        0.0502371206    0.9967616692    0.3531161991
C       -1.0582131370    1.5922869192    0.8152793640
C       -2.3464718896    0.8444741676    0.9602831244
C       -3.7688561501    1.2372429031    2.9935634765
C       -3.5409256286    1.6067440222    1.5149940198
O       -2.4345085105   -0.3482902799    0.6893557295
H        0.9869351772    1.5369111588    0.2443211103
H        0.0271184741   -0.0540894892    0.0738812290
H       -1.0490899129    2.6440624256    1.0953964212
H       -4.6432964131    1.7625761706    3.3897302174
H       -2.9047512130    1.5072685240    3.6103523001
H       -3.9349224175    0.1611803409    3.0922880992
H       -3.3990179524    2.6874924026    1.4109252597
H       -4.4197447308    1.3186976256    0.9298301113
14   
torsion grid (90,)
C        0.0312101812    0.9919280213    0.4199267638
C       -1.0874870745    1.5519457003    0.9002675506
C       -2.4011527387    0.8341458459    0.8700516778
C       -3.6784718401    1.2922006913    2.9809519673
C       -3.5932164468    1.5645691692    1.4657578809
O       -2.5052184169   -0.3076853725    0.4360535960
H        0.9850677423    1.5124815057    0.4354507302
H       -0.0004356143   -0.0098423347   -0.0022342534
H       -1.0704252131    2.5553534481    1.3226746945
H       -4.5435612800    1.8039970801    3.4136070610
H       -2.7826790335    1.6448608890    3.5034910031
H       -3.7817641943    0.2198871785    3.1703017629
H       -3.5108058913    2.6424232313    1.2851369290
H       -4.4965673637    1.1970535070    0.9718792978
14   
torsion grid (105,)
C        0.0170425056    0.9825763537    0.4716581401
C       -1.1103377516    1.5089389264    0.9686338011
C       -2.4358335089    0.8323544562    0.7986639799
C       -3.6119484297    1.3460656427    2.9729190881
C       -3.6307823474    1.5158934659    1.4412643621
O       -2.5472540968   -0.2284613473    0.1949000441
H        0.9785855626    1.4758020856    0.5865989441
H       -0.0145077479    0.0373115001   -0.0651933445
H       -1.0916082127    2.4553443155    1.5067990437
H       -4.4791956550    1.8397800913    3.4219125748
H       -2.7111233334    1.7809123019    3.4182069305
H       -3.6443507822    0.2865018638    3.2441747310
H       -3.6159199200    2.5844231906    1.1918100865
H       -4.5382734661    1.0758757140    1.0209682801
14   
torsion grid (120,)
C        0.0090103293    0.9620865600    0.5039907083
C       -1.1196601012    1.4637896878    1.0230662847
C       -2.4554984196    0.8470956126    0.7409910005
C       -3.5672983405    1.3990952510    2.9720975237
C       -3.6564580003    1.4675044086    1.4367840523
O       -2.5766958718   -0.0993866347   -0.0283583699
H        0.9789676733    1.4119679253    0.6986919671
H       -0.0292944046    0.0811141925   -0.1323814416
H       -1.0910328768    2.3443850125    1.6621611018
H       -4.4589931457    1.8445159555    3.4237232147
H       -2.6959262651    1.9367505105    3.3579992273
H       -3.4991997265    0.3612881808    3.3133359053
H       -3.7227887555    2.5191504380    1.1253014334
H       -4.5506392785    0.9539614600    1.0759140539
14   
torsion grid (135,)
C        0.0067270353    0.9305287544    0.5194150313
C       -1.1146664303    1.4024932111    1.0810669072
C       -2.4628939724    0.8765859589    0.6947886133
C       -3.5411244368    1.4632897943    2.9695939960
C       -3.6737167060    1.4229218829    1.4385703261
O       -2.5945794812    0.0687416284   -0.2180794056
H        0.9870023041    1.3132083119    0.7910218049
H       -0.0475649447    0.1434759928   -0.2289460408
H       -1.0657516028    2.1858556135    1.8339233239
H       -4.4813370053    1.7976825944    3.4188525220
H       -2.7578619409    2.1505565721    3.3018516629
H       -3.3117550258    0.4720630695    3.3740333349
H       -3.8430584218    2.4426623229    1.0634278259
H       -4.5349265549    0.8232528533    1.1337967594
14   
torsion grid (150,)
C        0.0065706098    0.9101788134    0.5156076056
C       -1.1044227042    1.3080422919    1.1514949812
C       -2.4628019964    0.9069148838    0.6655241223
C       -3.5256295875    1.5434032123    2.9606028650
C       -3.6866548675    1.3803648932    1.4427660766
O       -2.6014210639    0.2474786999   -0.3590576523
H        0.9959805470    1.2002540037    0.8593316316
H       -0.0657143142    0.2800445134   -0.3676339136
H       -1.0352206112    1.9336381861    2.0373055945
H       -4.4956152143    1.7612220856    3.4181925332
H       -2.8531890539    2.3657460617    3.2218463110
H       -3.1379561306    0.6300405642    3.4239703053
H       -3.9756889650    2.3437293460    0.9991157802
H       -4.4937438314    0.6822610052    1.2042504210
14   
torsion grid (165,)
C        0.0077812381    0.9015696009    0.5168146265
C       -1.0999501792    1.2123219820    1.2054411469
C       -2.4605862980    0.9457247388    0.6410564124
C       -3.5140384731    1.6197616088    2.9454930551
C       -3.6966747614    1.3330529152    1.4508553200
O       -2.5990850727    0.4463808332   -0.4706074473
H        1.0004074353    1.0927081328    0.9160946987
H       -0.0708556176    0.4457757290   -0.4673038114
H       -1.0238856621    1.6653644093    2.1895441001
H       -4.4870699232    1.7959547033    3.4145458091
H       -2.9029857612    2.5101842943    3.1232057611
H       -3.0455219781    0.7774487383    3.4654953509
H       -4.1172798049    2.2149807717    0.9498789807
H       -4.4257623255    0.5320901029    1.2928026584
14   
torsion grid (180,)
C       -0.0601157085    1.0057223173    0.2421423826
C       -1.3031872404    1.4824814026    0.4021679312
C       -2.3093112124    0.7480681485    1.2319441273
C       -4.0531597383    2.6333610192    0.6811040280
C       -3.7198164188    1.3163097040    1.3888139518
O       -2.0218285784   -0.3054671686    1.7904526860
H        0.6791621934    1.5296754215   -0.3580031135
H        0.2321439555    0.0725780272    0.7178274797
H       -1.5976170205    2.4138655772   -0.0720308591
H       -5.0916844963    2.9144619863    0.8820686093
H       -3.9410110282    2.5533051311   -0.4051351123
H       -3.4192813467    3.4558077998    1.0284771310
H       -4.4003068562    0.5223117545    1.0597585549
H       -3.8864994302    1.4093139965    2.4683286268
