14   
torsion grid (-165,)
C        0.2324110855   -0.3909318130    0.9671021934
C        1.6743171663   -0.8111539815    2.8587704004
C       -0.7116386774   -1.2251880840    1.5701617294
C        1.4421494440   -0.1857493874    1.6349675065
C        0.6536379922   -1.6351503425    3.3397852301
N       -0.5136780655   -1.8335525581    2.7485537096
O       -0.1955098917   -3.4903422057    5.0970122784
O        2.3522824562   -3.0517529735    4.5747730358
S        0.8199461709   -2.4145375092    5.0125497058
Cl       2.6634676287    0.8489030495    0.9369277838
H        0.0279458062    0.0856692448    0.0142219445
H        2.6113685394   -0.6933536786    3.3914095363
H       -1.6699767066   -1.4051393985    1.0872623727
H        2.7631060300   -3.3906704609    5.3927805343
14   
torsion grid (-150,)
C        0.2161521528   -0.3650468928    0.9800024701
C        1.6770194785   -0.8919367775    2.8316874653
C       -0.7582380385   -1.1556073081    1.5943460487
C        1.4493677810   -0.2361448329    1.6221497073
C        0.6250704029   -1.6679027077    3.3249749994
N       -0.5663979801   -1.7926303848    2.7573695162
O       -0.0822511357   -3.7344361376    4.8949572954
O        2.3960117188   -2.8602448681    4.7004290274
S        0.7398717580   -2.5029926551    4.9735545736
Cl       2.7091750986    0.7415557904    0.9099439213
H        0.0167312075    0.1355665388    0.0384707440
H        2.6302750358   -0.8347666942    3.3430541853
H       -1.7362872679   -1.2752641553    1.1328789776
H        2.7611711517   -3.1753466927    5.5486390506
14   
torsion grid (-135,)
C        0.2039841250   -0.3052241499    0.9876111600
C        1.6764801252   -0.9427541943    2.7973842670
C       -0.7963264361   -1.0596522025    1.6069892883
C        1.4540532801   -0.2514400917    1.6057119815
C        0.5986003449   -1.6758072605    3.2972628620
N       -0.6105935643   -1.7308556395    2.7504837935
O        0.0708205005   -3.9318549779    4.6606276197
O        2.3805080701   -2.6872509216    4.8138932364
S        0.6700374480   -2.5955630586    4.9007157436
Cl       2.7450385759    0.6803732368    0.8877167692
H        0.0102252595    0.2249485227    0.0612298727
H        2.6390501433   -0.9386122766    3.2930116057
H       -1.7887893150   -1.1200386143    1.1651810129
H        2.6902644482   -3.0178489971    5.6777704664
14   
torsion grid (-120,)
C        0.1946992134   -0.3007598787    0.9994126955
C        1.6880702121   -1.0121458899    2.7643198884
C       -0.8210174690   -1.0124830340    1.6441063705
C        1.4629621901   -0.3060370826    1.5814799463
C        0.5931057127   -1.6967571958    3.2921462211
N       -0.6332645691   -1.6976565695    2.7785334084
O        0.2917133985   -4.0778879964    4.4967168148
O        2.3529395250   -2.5246021039    4.9502874190
S        0.6486998904   -2.6811114235    4.8547743985
Cl       2.7727494962    0.5728682246    0.8313646933
H       -0.0011038954    0.2423088055    0.0809810840
H        2.6605366272   -1.0470828149    3.2386507443
H       -1.8271023430   -1.0263825931    1.2302496376
H        2.6214831109   -2.8743526161    5.8201883314
14   
torsion grid (-105,)
C        0.1909376842   -0.2700889898    1.0170888019
C        1.6894299277   -1.0712612339    2.7386123219
C       -0.8405769171   -0.9502334156    1.6700070761
C        1.4699899175   -0.3372744821    1.5722828887
C        0.5766557946   -1.7140477648    3.2798802320
N       -0.6588436461   -1.6608475689    2.7903829879
O        0.5320092456   -4.1842826148    4.3258921351
O        2.2696637381   -2.3805702379    5.0767680433
S        0.6265271378   -2.7742163437    4.7890886897
Cl       2.7986463441    0.5005854540    0.8088585537
H       -0.0002572754    0.2960071847    0.1116765479
H        2.6669061005   -1.1505170890    3.1975467774
H       -1.8540219423   -0.9167339211    1.2758694970
H        2.5218307076   -2.8102087021    5.9154007845
14   
torsion grid (-90,)
C        0.1866711347   -0.2473366346    1.0376855114
C        1.6894736747   -1.1400036608    2.7079933559
C       -0.8574288882   -0.8942254743    1.7030153248
C        1.4755951213   -0.3777893371    1.5599416453
C        0.5615977131   -1.7385783830    3.2683631874
N       -0.6814480433   -1.6307724489    2.8087554651
O        0.8061617396   -4.2422164331    4.1893421522
O        2.1608247972   -2.2501019987    5.1913243576
S        0.6302362520   -2.8642383938    4.7242333393
Cl       2.8196328667    0.4156566816    0.7767563410
H       -0.0010792675    0.3407831493    0.1456742680
H        2.6713041717   -1.2655306602    3.1477509214
H       -1.8768703432   -0.8128547465    1.3321859539
H        2.4105233720   -2.7061815114    6.0167944878
14   
torsion grid (-75,)
C        0.1807374177   -0.2240616958    1.0617807120
C        1.6885039469   -1.2217568355    2.6656786528
C       -0.8720627071   -0.8410863190    1.7399573764
C        1.4778174062   -0.4232400079    1.5433610733
C        0.5495415640   -1.7790529147    3.2471121080
N       -0.6992524963   -1.6118044887    2.8245242210
O        1.1094020306   -4.2557327145    4.0968639101
O        2.0127406403   -2.1312906180    5.2980985337
S        0.6517531159   -2.9535233795    4.6577591564
Cl       2.8320100729    0.3301042367    0.7391078272
H       -0.0050572196    0.3926763251    0.1888552555
H        2.6748525007   -1.3992329711    3.0776752166
H       -1.8962639947   -0.7084788333    1.3982920359
H        2.2676356611   -2.5966555609    6.1171660906
14   
torsion grid (-60,)
C        0.2960978328   -0.5433729293    0.9059291543
C        1.3003066624   -0.5119671985    3.1031794468
C       -0.5261680447   -1.5805870814    1.3476448819
C        1.2202262169   -0.0062884562    1.8082761917
C        0.4175122097   -1.5469504453    3.4147377421
N       -0.4742092403   -2.0851401738    2.5911814025
O        1.8538745294   -2.9537638641    5.1765191170
O        0.4861261471   -0.8483744280    5.8476519618
S        0.4889511596   -2.3673408658    5.0548044055
Cl       2.2696851804    1.2960764674    1.3085931330
H        0.2191778875   -0.1660586452   -0.1082787222
H        2.0001512128   -0.1285959520    3.8370742435
H       -1.2569488716   -2.0248035840    0.6754657902
H        0.4547963955   -1.0237580752    6.8074857422
14   
torsion grid (-45,)
C        0.2525811935   -0.5050446557    0.9282215963
C        1.4096570002   -0.5720498415    3.0473551246
C       -0.5729767059   -1.5268346097    1.3991777833
C        1.2572768186   -0.0258513386    1.7756690064
C        0.5128822253   -1.5835903473    3.3925611476
N       -0.4534719179   -2.0680450088    2.6227605077
O        2.1079323390   -2.6685214033    5.2369128738
O        0.2794872300   -0.9122667447    5.8164397617
S        0.6576947865   -2.3873236715    5.0345265941
Cl       2.3143870284    1.2542038918    1.2366676735
H        0.1181838347   -0.0964704079   -0.0677312963
H        2.1808333209   -0.2459971072    3.7368833282
H       -1.3628972931   -1.9276215704    0.7678198714
H        0.1489196325   -1.1097378306    6.7637899236
14   
torsion grid (-30,)
C        0.2678827018   -0.4515940373    0.9713567517
C        1.5414914267   -0.6037474559    3.0179914410
C       -0.5725356103   -1.4464567349    1.4753297018
C        1.3396201211   -0.0300526300    1.7645265399
C        0.6230140573   -1.5803870366    3.3988572716
N       -0.4065883093   -2.0123771802    2.6811175725
O        2.2789784530   -2.3596519262    5.3319136401
O        0.0890314833   -1.0312504625    5.8062198681
S        0.8164757210   -2.3749563397    5.0399343301
Cl       2.4198034204    1.2112326544    1.1828697666
H        0.0941200885   -0.0221631058   -0.0096270564
H        2.3672759463   -0.3318289311    3.6673052194
H       -1.4132170452   -1.8031626835    0.8842391753
H       -0.1517383584   -1.3062022892    6.7116325031
14   
torsion grid (-15,)
C        0.2630906371   -0.4450544283    0.9895620564
C        1.6234828106   -0.6360705260    2.9761566699
C       -0.5982077589   -1.3947428020    1.5462560537
C        1.3899995855   -0.0675149210    1.7244655760
C        0.6766082997   -1.5576158480    3.4147054782
N       -0.4016406770   -1.9542582239    2.7488708614
O        2.3443172597   -2.0726610216    5.4188164499
O       -0.0741601326   -1.1881815416    5.8050640604
S        0.9247216077   -2.3475491989    5.0523158597
Cl       2.5026960459    1.1097058048    1.0747230689
H        0.0630099296   -0.0202775045    0.0115858482
H        2.4884904636   -0.3985592675    3.5872826023
H       -1.4801511624   -1.7193641437    0.9981899257
H       -0.3702931768   -1.5658410610    6.6549573645
14   
torsion grid (0,)
C        0.2411550934   -0.4314124144    0.9753399956
C        1.6675859898   -0.6240778357    2.9148342494
C       -0.6400008574   -1.3229512877    1.5959528371
C        1.4121843929   -0.0859009609    1.6530827982
C        0.6940007565   -1.4790483412    3.4227033567
N       -0.4215223516   -1.8540750611    2.8062317025
O        2.3372216971   -1.7540581605    5.4886932793
O       -0.2095732365   -1.3247071295    5.7945385246
S        1.0030336700   -2.2616231073    5.0547691994
Cl       2.5553699063    1.0111462371    0.9210706024
H        0.0225979889   -0.0295921294   -0.0083506016
H        2.5595652073   -0.3994937098    3.4911541170
H       -1.5560555689   -1.6237061974    1.0918400572
H       -0.5086264340   -1.8101821504    6.5862662466
14   
torsion grid (15,)
C        0.2693924497   -0.4498016559    0.9556514494
C        1.7283783758   -0.6386451265    2.8711299480
C       -0.6419192412   -1.2661302708    1.6339700869
C        1.4731642293   -0.1423400706    1.5919849024
C        0.7202185027   -1.4108257674    3.4430578988
N       -0.4221663021   -1.7584340909    2.8599129205
O        2.2812246515   -1.4746561333    5.5867247335
O       -0.3093910236   -1.4881723724    5.7788351379
S        1.0707757826   -2.1808997697    5.0744528665
Cl       2.6592904996    0.8531786638    0.7870653904
H        0.0490751484   -0.0789068099   -0.0397109872
H        2.6401306332   -0.4245764238    3.4194956644
H       -1.5839326667   -1.5394224074    1.1629902775
H       -0.5777671673   -2.0653812895    6.5178038762
14   
torsion grid (30,)
C        0.2634425082   -0.4464010044    0.9567522491
C        1.7581476261   -0.6434732812    2.8427805860
C       -0.6676265166   -1.1934700699    1.6854327770
C        1.4967684169   -0.1793303250    1.5531475867
C        0.7274325428   -1.3433331777    3.4701504015
N       -0.4407411366   -1.6572032260    2.9213436318
O        2.1668449447   -1.2043383114    5.6936476190
O       -0.3804726625   -1.6953186963    5.7534902854
S        1.1287066058   -2.0972880664    5.1006855779
Cl       2.7115270161    0.7256317210    0.6864873185
H        0.0358643293   -0.0982711344   -0.0451697359
H        2.6903189588   -0.4400662293    3.3594884609
H       -1.6340009961   -1.4353276089    1.2476689713
H       -0.5705399243   -2.3409584449    6.4590845631
14   
torsion grid (45,)
C        0.2884254035   -0.4581349428    0.9294124091
C        1.8012672872   -0.7113705380    2.7929956628
C       -0.6698745779   -1.1360789492    1.6880891725
C        1.5458227475   -0.2541518709    1.5005506952
C        0.7445513991   -1.3439599352    3.4526301801
N       -0.4476714901   -1.5948842749    2.9274810820
O        1.9774328625   -1.0294943615    5.7865733333
O       -0.4265170595   -2.0006432365    5.6413360386
S        1.1692343886   -2.0752184028    5.0935416591
Cl       2.7958100442    0.5653800072    0.5996780302
H        0.0632559493   -0.1134353583   -0.0742547654
H        2.7535384531   -0.5420376353    3.2847584786
H       -1.6579967219   -1.3257560328    1.2736405496
H       -0.5095917749   -2.6485424818    6.3655049233
14   
torsion grid (60,)
C        0.2819214716   -0.4454263499    0.9401764821
C        1.8265960316   -0.7245378535    2.7721123933
C       -0.6870273703   -1.0554944359    1.7402484715
C        1.5618455508   -0.2870154743    1.4756673275
C        0.7615231494   -1.2983741390    3.4728636412
N       -0.4546995720   -1.4927797490    2.9864742602
O        1.6959618107   -0.7212401534    5.9029565791
O       -0.4042198497   -2.2224736671    5.5688635157
S        1.2042819435   -1.9194534873    5.1610515105
Cl       2.8253210296    0.4531585656    0.5260299294
H        0.0475900178   -0.1139896979   -0.0658639410
H        2.8022163429   -0.5899890336    3.2282442363
H       -1.6947427769   -1.2049974069    1.3576749385
H       -0.3872178198   -2.7695044387    6.3768009623
14   
torsion grid (75,)
C        0.2268007329   -0.3176292174    0.9517250709
C        1.8227864743   -0.6682846702    2.7246101871
C       -0.7341523261   -0.9041310525    1.7796345069
C        1.5284632902   -0.2046317638    1.4433118082
C        0.7675197856   -1.2256357045    3.4514768331
N       -0.4742681960   -1.3603740756    3.0128719637
O        1.3458111082   -0.5107202718    5.9619376074
O       -0.2738082219   -2.4864028013    5.4372858406
S        1.2271493735   -1.7663380511    5.1642750941
Cl       2.7810669184    0.5108894498    0.4608962054
H       -0.0320662022    0.0342253563   -0.0412771454
H        2.8216807931   -0.5806380278    3.1412251451
H       -1.7594302458   -1.0135905278    1.4316196536
H       -0.1955391711   -2.9718489874    6.2806497647
14   
torsion grid (90,)
C        0.2373342116   -0.3236926198    0.9537649221
C        1.8439545470   -0.7017638867    2.7109921079
C       -0.7386717640   -0.8294084733    1.8187911387
C        1.5508956678   -0.2628831837    1.4194494403
C        0.7769345573   -1.1854732656    3.4700414703
N       -0.4819335290   -1.2550078814    3.0621427013
O        0.9809193384   -0.3760726598    6.0119601047
O       -0.1215278219   -2.6561961041    5.3713614940
S        1.2028384803   -1.6183503420    5.2176375145
Cl       2.8211718886    0.3571762496    0.3957538028
H       -0.0216806655    0.0102349646   -0.0453779936
H        2.8553653885   -0.6636088604    3.1048137471
H       -1.7749216282   -0.8916695536    1.4921945161
H       -0.0280519432   -3.0976325160    6.2370666132
14   
torsion grid (105,)
C        0.2255307023   -0.4578635384    0.9703509075
C        1.6777522196   -0.4923630456    2.8948843426
C       -0.3533039636   -1.6350024111    1.4599163202
C        1.2578327616    0.1166845910    1.7104788931
C        1.0217262252   -1.6662816791    3.2645357121
N        0.0290174377   -2.2347311100    2.5928632283
O        0.3579223736   -2.0489312020    5.8342215183
O        1.3648256678   -3.9512553818    4.3542384014
S        1.4868992567   -2.3565101747    4.9120972712
Cl       2.0217146073    1.5880517663    1.1650423314
H       -0.1232685715   -0.0075817706    0.0470438276
H        2.4782521388   -0.0708961464    3.4957624197
H       -1.1646176932   -2.1099388732    0.9116410667
H        1.6377234720   -4.5293297735    5.0921570563
14   
torsion grid (120,)
C        0.2304379266   -0.4630521844    0.9691230153
C        1.6733358812   -0.5046736019    2.9008634895
C       -0.4142474562   -1.5878146843    1.4994888429
C        1.2901779566    0.0819182886    1.6921626729
C        0.9541211536   -1.6270765588    3.3082708804
N       -0.0681609776   -2.1644474968    2.6552255454
O        0.1396944703   -2.2590395372    5.7913886237
O        1.5630502915   -3.8779143149    4.3179189639
S        1.3755403898   -2.3180116330    4.9650716936
Cl       2.1334061150    1.4895720831    1.0974120181
H       -0.0912865085   -0.0287744659    0.0284692101
H        2.4931194519   -0.1054958533    3.4906606063
H       -1.2492952017   -2.0371122830    0.9654355339
H        1.8520617747   -4.4571241463    5.0489275381
14   
torsion grid (135,)
C        0.2502429288   -0.4695497450    0.9594796708
C        1.6696807060   -0.5343145003    2.9083972055
C       -0.4708891931   -1.5313445543    1.5197671517
C        1.3363671471    0.0317341541    1.6755322894
C        0.8749182268   -1.5931769640    3.3441498732
N       -0.1723269556   -2.0879309063    2.6986716824
O       -0.0379871290   -2.4753882952    5.7238919699
O        1.7333023750   -3.7718464528    4.3085693498
S        1.2518153711   -2.2942995726    5.0087449481
Cl       2.2735717965    1.3607933004    1.0416816883
H       -0.0343048811   -0.0482286659    0.0011111981
H        2.5070665364   -0.1678041627    3.4945981769
H       -1.3276920593   -1.9450845824    0.9914947175
H        2.0461465445   -4.3457297028    5.0342225289
14   
torsion grid (150,)
C        0.2553315021   -0.4624035984    0.9496757528
C        1.6634730181   -0.5691538821    2.9050202241
C       -0.5338639694   -1.4598845801    1.5332918576
C        1.3710003298   -0.0147391411    1.6576916830
C        0.8004443344   -1.5638348497    3.3634585389
N       -0.2739204815   -2.0054627602    2.7276982219
O       -0.1529605249   -2.6975273949    5.6228925459
O        1.9125011360   -3.6218612691    4.3151219871
S        1.1421862099   -2.2762166930    5.0342653605
Cl       2.3938803042    1.2338668443    0.9929353336
H        0.0008628658   -0.0471915157   -0.0197605619
H        2.5220126758   -0.2441473100    3.4850093377
H       -1.4146096914   -1.8307956825    1.0127509564
H        2.3006351044   -4.1522297690    5.0375732367
14   
torsion grid (165,)
C        0.2480093617   -0.4422785816    0.9534582480
C        1.6523602597   -0.6336018508    2.9058718713
C       -0.6040938764   -1.3810414832    1.5426193627
C        1.3940142096   -0.0675291347    1.6577291435
C        0.7260198672   -1.5681709066    3.3702303773
N       -0.3769536499   -1.9369993156    2.7406394675
O       -0.2428102538   -2.9565471034    5.4757335495
O        2.0778730467   -3.4544726534    4.3665188212
S        1.0141709135   -2.2978364872    5.0479203762
Cl       2.4963386326    1.1059785345    0.9826920080
H        0.0198290850   -0.0146674217   -0.0171308581
H        2.5351785148   -0.3688662028    3.4797697425
H       -1.5098306378   -1.6942134621    1.0271371574
H        2.5048235500   -3.9248880636    5.1082873408
14   
torsion grid (180,)
C        0.2306048873   -0.4095180777    0.9632985787
C        1.6431192116   -0.7158554842    2.8961072553
C       -0.6744733607   -1.2955827980    1.5526267652
C        1.4073457817   -0.1197167712    1.6585350433
C        0.6635035118   -1.5960247682    3.3606239271
N       -0.4707478393   -1.8786379591    2.7429614284
O       -0.2789051033   -3.2310025249    5.2876860302
O        2.2169479881   -3.2593122515    4.4594823769
S        0.8844886189   -2.3476133881    5.0400512730
Cl       2.5777903457    0.9843774163    0.9807751006
H        0.0210547388    0.0430181173   -0.0001774278
H        2.5521915780   -0.5247237031    3.4571207250
H       -1.6057581098   -1.5416531698    1.0464887341
H        2.6451361522   -3.6655046145    5.2373699559
