
  -OEChem-12122420533D

 18 19  0     0  0  0  0  0  0999 V2000
    2.1928    0.8435   -1.1232 O   0  0  0  0  0  0  0  0  0  0  0  0
    1.3780   -0.1136   -1.6824 C   0  0  0  0  0  0  0  0  0  0  0  0
    0.2443   -0.4884   -0.9324 C   0  0  0  0  0  0  0  0  0  0  0  0
    0.0771   -0.0114    0.0284 H   0  0  0  0  0  0  0  0  0  0  0  0
   -0.6382   -1.4492   -1.4169 C   0  0  0  0  0  0  0  0  0  0  0  0
   -1.5085   -1.7310   -0.8315 H   0  0  0  0  0  0  0  0  0  0  0  0
   -0.3794   -2.0353   -2.6607 C   0  0  0  0  0  0  0  0  0  0  0  0
    0.7567   -1.6624   -3.4168 C   0  0  0  0  0  0  0  0  0  0  0  0
    1.6430   -0.6925   -2.9223 C   0  0  0  0  0  0  0  0  0  0  0  0
    2.5132   -0.4138   -3.5124 H   0  0  0  0  0  0  0  0  0  0  0  0
    0.8985   -2.3189   -4.6341 N   0  0  0  0  0  0  0  0  0  0  0  0
   -0.0673   -3.1629   -4.8332 C   0  0  0  0  0  0  0  0  0  0  0  0
   -0.1979   -4.0233   -6.0524 C   0  0  0  0  0  0  0  0  0  0  0  0
   -0.1908   -5.0858   -5.7876 H   0  0  0  0  0  0  0  0  0  0  0  0
   -1.1350   -3.8185   -6.5807 H   0  0  0  0  0  0  0  0  0  0  0  0
    0.6397   -3.8179   -6.7214 H   0  0  0  0  0  0  0  0  0  0  0  0
   -1.2808   -3.2561   -3.5381 S   0  0  0  0  0  0  0  0  0  0  0  0
    2.9336    1.0187   -1.7247 H   0  0  0  0  0  0  0  0  0  0  0  0
  1  2  1  0  0  0  0
  1 18  1  0  0  0  0
  2  3  2  0  0  0  0
  2  9  1  0  0  0  0
  3  4  1  0  0  0  0
  3  5  1  0  0  0  0
  5  6  1  0  0  0  0
  5  7  2  0  0  0  0
  7  8  1  0  0  0  0
  7 17  1  0  0  0  0
  8  9  2  0  0  0  0
  8 11  1  0  0  0  0
  9 10  1  0  0  0  0
 11 12  2  0  0  0  0
 12 13  1  0  0  0  0
 12 17  1  0  0  0  0
 13 14  1  0  0  0  0
 13 15  1  0  0  0  0
 13 16  1  0  0  0  0
M  END
$$$$
