29
-1 1 C7ClH11NO7S2
C                     0.559815914988    -0.331031249223    -0.405137723232
C                    -0.910886867050    -0.147932118964    -0.041988179626
C                    -1.257229906489    -0.609533495083     1.388516311783
S                    -0.687646872472    -2.314239021774     1.770040973101
O                     0.745410951896    -2.235596297837     2.117783442842
O                    -1.094998270979    -3.174608970676     0.634447861967
C                    -1.664612224821    -2.719147748860     3.237040916984
C                    -1.287737136730    -4.068977682222     3.818312226726
S                    -2.355918489999    -4.338696226689     5.305040494993
O                    -1.931257614971    -5.663949402936     5.820792437494
O                    -2.016594954508    -3.179632105972     6.181156185884
O                    -3.737464717692    -4.289422075930     4.744536792509
H                    -0.248755411521    -4.093922794302     4.150877026214
H                    -1.486093387908    -4.884830677654     3.120986930617
H                    -2.713536009753    -2.711130835829     2.929226270108
H                    -1.480336416115    -1.924675169064     3.966123666827
H                    -2.339807488733    -0.590894868287     1.544658773923
H                    -0.776086322903     0.031146640355     2.129716558279
N                    -1.337201801868     1.258726456684    -0.237613045589
Cl                   -0.735425695437     2.492238831095     0.809573895069
C                    -2.689162768901     1.332046562774    -0.610091665913
O                    -3.425079239158     2.285957627301    -0.557073718682
O                    -3.033016595784     0.107199444020    -1.096048259109
C                    -1.867515616394    -0.759957038564    -1.087434534728
H                    -1.414932864598    -0.736336668713    -2.082827853717
H                    -2.181646432496    -1.768821166713    -0.831974188651
H                     1.207195201076     0.103126404072     0.360032584000
H                     0.804932365335    -1.392178546170    -0.479368665013
H                     0.759877413269     0.156582340697    -1.363121933543
