29
-1 1 C7ClH11NO7S2
C                    -1.466628456189     1.324436004923     0.011720555535
C                    -0.961791338710    -0.124059522087     0.026691857259
C                    -1.288567950242    -0.723195446996     1.408935096008
S                    -0.538282228465    -2.349119631780     1.800902688571
O                     0.896208496662    -2.101167902856     2.066302570196
O                    -0.925990605954    -3.291772752781     0.735264328138
C                    -1.385728849658    -2.742961744652     3.350626058824
C                    -0.813743562776    -3.963457920753     4.045996198601
S                    -1.680648342220    -4.107415701902     5.674112605816
O                    -1.076459293543    -5.306953608196     6.305366782773
O                    -1.359813803377    -2.811217497833     6.342994013006
O                    -3.115839158213    -4.246522838359     5.290614478634
H                     0.251431376007    -3.850647748354     4.254864316940
H                    -0.998804718087    -4.882162544990     3.486771887859
H                    -2.439602425925    -2.892664368852     3.103469090569
H                    -1.272033040988    -1.865631782566     3.994550399821
H                    -2.369374942581    -0.843537827268     1.514632735104
H                    -0.933347804340    -0.045730478526     2.188998958247
N                    -1.514156073440    -0.870330609205    -1.111905900910
Cl                   -3.160109081179    -1.368060829118    -1.101643461428
C                    -0.573568897312    -1.712583186739    -1.725665913207
O                    -0.772980772357    -2.564045347484    -2.551037663636
O                     0.656273066924    -1.321993915597    -1.285549729811
C                     0.535481351698    -0.206973595132    -0.378782629058
H                     0.833818440023     0.700074017170    -0.913508130487
H                     1.193249032028    -0.392133463160     0.469311588622
H                    -2.528920236440     1.369011485394     0.269491061768
H                    -0.913657982890     1.929366356787     0.737653875459
H                    -1.333379607793     1.753986112245    -0.984894898222
