
  -OEChem-12102412493D

 23 23  0     1  0  0  0  0  0999 V2000
   -2.3525    0.0250   -0.7420 O   0  0  0  0  0  0  0  0  0  0  0  0
   -1.3130   -0.4080    0.1173 C   0  0  2  0  0  0  0  0  0  0  0  0
   -1.7194   -0.9321    0.9933 H   0  0  0  0  0  0  0  0  0  0  0  0
   -0.4197    0.7281    0.6244 C   0  0  1  0  0  0  0  0  0  0  0  0
   -1.0214    1.3927    1.7212 O   0  0  0  0  0  0  0  0  0  0  0  0
   -0.5069    2.1974    1.9030 H   0  0  0  0  0  0  0  0  0  0  0  0
   -0.2646    1.4238   -0.2089 H   0  0  0  0  0  0  0  0  0  0  0  0
    0.8976   -0.0070    0.9700 C   0  0  2  0  0  0  0  0  0  0  0  0
    2.2910    1.1021    0.4387 S   0  0  0  0  0  0  0  0  0  0  0  0
    2.1996    2.3314    1.2430 O   0  0  0  0  0  0  0  0  0  0  0  0
    2.4197    1.1421   -1.0114 O   0  0  0  0  0  0  0  0  0  0  0  0
    3.6061    0.2583    0.9956 O   0  0  0  0  0  0  0  0  0  0  0  0
    3.9399    0.7172    1.7908 H   0  0  0  0  0  0  0  0  0  0  0  0
    1.0545   -0.0619    2.0536 H   0  0  0  0  0  0  0  0  0  0  0  0
    0.8132   -1.2806    0.3294 N   0  0  0  0  0  0  0  0  0  0  0  0
    1.6810   -1.7120    0.0310 H   0  0  0  0  0  0  0  0  0  0  0  0
   -0.3259   -1.3401   -0.6080 C   0  0  2  0  0  0  0  0  0  0  0  0
   -0.0201   -0.9358   -2.0524 C   0  0  0  0  0  0  0  0  0  0  0  0
    0.7189   -1.6225   -2.4795 H   0  0  0  0  0  0  0  0  0  0  0  0
    0.3880    0.0747   -2.1213 H   0  0  0  0  0  0  0  0  0  0  0  0
   -0.9306   -0.9897   -2.6554 H   0  0  0  0  0  0  0  0  0  0  0  0
   -0.7155   -2.3633   -0.6008 H   0  0  0  0  0  0  0  0  0  0  0  0
   -2.9486    0.5840   -0.2181 H   0  0  0  0  0  0  0  0  0  0  0  0
  1  2  1  0  0  0  0
  1 23  1  0  0  0  0
  2  3  1  0  0  0  0
  2  4  1  0  0  0  0
  2 17  1  0  0  0  0
  4  5  1  0  0  0  0
  4  7  1  0  0  0  0
  4  8  1  0  0  0  0
  5  6  1  0  0  0  0
  8  9  1  0  0  0  0
  8 14  1  0  0  0  0
  8 15  1  0  0  0  0
  9 10  2  0  0  0  0
  9 11  2  0  0  0  0
  9 12  1  0  0  0  0
 12 13  1  0  0  0  0
 15 16  1  0  0  0  0
 15 17  1  0  0  0  0
 17 18  1  0  0  0  0
 17 22  1  0  0  0  0
 18 19  1  0  0  0  0
 18 20  1  0  0  0  0
 18 21  1  0  0  0  0
M  END
$$$$
