
  -OEChem-12102412493D

 17 16  0     0  0  0  0  0  0999 V2000
    0.7492    1.2259   -1.4418 C   0  0  0  0  0  0  0  0  0  0  0  0
    1.5889   -0.0630   -2.6752 Br  0  0  0  0  0  0  0  0  0  0  0  0
    0.2155    0.5709   -0.1806 C   0  0  0  0  0  0  0  0  0  0  0  0
   -1.3174   -0.3871   -0.4979 S   0  0  0  0  0  0  0  0  0  0  0  0
   -0.9835   -1.7794   -0.8289 O   0  0  0  0  0  0  0  0  0  0  0  0
   -2.1580    0.4239   -1.3967 O   0  0  0  0  0  0  0  0  0  0  0  0
   -2.1104   -0.3927    1.1529 C   0  0  0  0  0  0  0  0  0  0  0  0
   -3.3606   -1.2510    1.0884 C   0  0  0  0  0  0  0  0  0  0  0  0
   -4.2321   -1.2660    2.8627 Br  0  0  0  0  0  0  0  0  0  0  0  0
   -3.1326   -2.2872    0.8487 H   0  0  0  0  0  0  0  0  0  0  0  0
   -4.0953   -0.8527    0.3915 H   0  0  0  0  0  0  0  0  0  0  0  0
   -1.3825   -0.7980    1.8601 H   0  0  0  0  0  0  0  0  0  0  0  0
   -2.3450    0.6437    1.4041 H   0  0  0  0  0  0  0  0  0  0  0  0
   -0.0696    1.3536    0.5317 H   0  0  0  0  0  0  0  0  0  0  0  0
    0.9352   -0.1060    0.2836 H   0  0  0  0  0  0  0  0  0  0  0  0
    1.5277    1.9434   -1.1857 H   0  0  0  0  0  0  0  0  0  0  0  0
   -0.0458    1.7175   -2.0008 H   0  0  0  0  0  0  0  0  0  0  0  0
  1  2  1  0  0  0  0
  1  3  1  0  0  0  0
  1 16  1  0  0  0  0
  1 17  1  0  0  0  0
  3  4  1  0  0  0  0
  3 14  1  0  0  0  0
  3 15  1  0  0  0  0
  4  5  2  0  0  0  0
  4  6  2  0  0  0  0
  4  7  1  0  0  0  0
  7  8  1  0  0  0  0
  7 12  1  0  0  0  0
  7 13  1  0  0  0  0
  8  9  1  0  0  0  0
  8 10  1  0  0  0  0
  8 11  1  0  0  0  0
M  END
$$$$
