27
-1 1 C7ClH12N2O4S
C                    -1.134476467843    -0.611576457790     2.289779202238
C                    -0.710054733288    -0.361760321134     0.845947790245
C                    -1.568168910869    -1.157133920382    -0.147559228950
H                    -1.303136595735    -0.914395259039    -1.178439954869
H                    -2.618817533044    -0.883249782873    -0.020708630459
H                    -1.457477045428    -2.232349494019     0.021296906180
N                     0.753424970327    -0.594814965437     0.684678378824
Cl                    1.291280068115    -2.262553833807     0.641586250868
C                     1.228329184176     0.207518541823    -0.409317069590
O                     2.272811828200     0.036661698786    -1.020660266065
N                     0.310625202294     1.205018959797    -0.555287729721
C                     0.588194429355     2.366769406290    -1.391576003831
C                    -0.640272113350     3.208563314184    -1.717245089795
S                    -1.910632626262     2.378173656731    -2.764587894309
O                    -1.121023359661     1.702166682604    -3.829882903400
O                    -2.618949541591     1.433685359747    -1.842290283814
O                    -2.760926167931     3.507992867693    -3.229133882309
H                    -0.311861339091     4.072718970393    -2.300672579709
H                    -1.150228739878     3.580397555419    -0.823410185761
H                     1.026767987096     1.996795275869    -2.320645415715
H                     1.336148982641     3.007619285902    -0.897250494216
C                    -0.719031219231     1.138640563314     0.474933461473
H                    -1.686660218675     1.436980059395     0.069348662875
H                    -0.448679556565     1.752326088627     1.349060197484
H                    -1.082278120860    -1.678832470621     2.528470451686
H                    -0.485718204154    -0.068882314874     2.984044250663
H                    -2.168244998469    -0.281180491100     2.437823427394
