
  -OEChem-12102412493D

 50 51  0     1  0  0  0  0  0999 V2000
   -2.7928   -8.6314    1.1390 N   0  0  0  0  0  0  0  0  0  0  0  0
   -2.2168   -7.5793    2.1223 S   0  0  2  0  0  0  0  0  0  0  0  0
   -1.3868   -8.1555    3.1996 O   0  0  0  0  0  0  0  0  0  0  0  0
   -3.5222   -6.5480    2.8391 C   0  0  0  0  0  0  0  0  0  0  0  0
   -3.6923   -5.2131    2.4574 C   0  0  0  0  0  0  0  0  0  0  0  0
   -3.0283   -4.7464    1.7386 H   0  0  0  0  0  0  0  0  0  0  0  0
   -4.7207   -4.4478    2.9960 C   0  0  0  0  0  0  0  0  0  0  0  0
   -4.8361   -3.4098    2.6926 H   0  0  0  0  0  0  0  0  0  0  0  0
   -5.6024   -5.0115    3.9365 C   0  0  0  0  0  0  0  0  0  0  0  0
   -6.6226   -4.1938    4.4285 N   0  0  0  0  0  0  0  0  0  0  0  0
   -7.5430   -4.3840    5.4416 C   0  0  0  0  0  0  0  0  0  0  0  0
   -8.4065   -3.3587    5.5856 N   0  0  0  0  0  0  0  0  0  0  0  0
   -9.3158   -3.5147    6.5584 C   0  0  0  0  0  0  0  0  0  0  0  0
  -10.0298   -2.7053    6.6958 H   0  0  0  0  0  0  0  0  0  0  0  0
   -9.3690   -4.6389    7.3656 C   0  0  0  0  0  0  0  0  0  0  0  0
  -10.6934   -4.8085    8.7397 Br  0  0  0  0  0  0  0  0  0  0  0  0
   -8.4067   -5.6592    7.1460 C   0  0  0  0  0  0  0  0  0  0  0  0
   -8.3461   -6.7787    7.9071 N   0  0  0  0  0  0  0  0  0  0  0  0
   -7.4353   -7.8944    7.6386 C   0  0  2  0  0  0  0  0  0  0  0  0
   -8.0595   -8.8967    6.6616 C   0  0  0  0  0  0  0  0  0  0  0  0
   -7.3949   -9.7510    6.5130 H   0  0  0  0  0  0  0  0  0  0  0  0
   -9.0215   -9.2668    7.0296 H   0  0  0  0  0  0  0  0  0  0  0  0
   -8.2339   -8.4091    5.6980 H   0  0  0  0  0  0  0  0  0  0  0  0
   -6.9390   -8.5230    8.9721 C   0  0  0  0  0  0  0  0  0  0  0  0
   -6.0072   -9.5707    8.6444 O   0  0  0  0  0  0  0  0  0  0  0  0
   -5.1898   -9.1594    8.3187 H   0  0  0  0  0  0  0  0  0  0  0  0
   -8.0552   -9.2176    9.7547 C   0  0  0  0  0  0  0  0  0  0  0  0
   -7.6456   -9.6399   10.6760 H   0  0  0  0  0  0  0  0  0  0  0  0
   -8.4902  -10.0343    9.1742 H   0  0  0  0  0  0  0  0  0  0  0  0
   -8.8508   -8.5187   10.0329 H   0  0  0  0  0  0  0  0  0  0  0  0
   -6.2448   -7.4623    9.8358 C   0  0  0  0  0  0  0  0  0  0  0  0
   -5.8121   -7.9354   10.7220 H   0  0  0  0  0  0  0  0  0  0  0  0
   -5.4384   -6.9718    9.2763 H   0  0  0  0  0  0  0  0  0  0  0  0
   -6.9399   -6.6830   10.1583 H   0  0  0  0  0  0  0  0  0  0  0  0
   -6.5572   -7.4501    7.1632 H   0  0  0  0  0  0  0  0  0  0  0  0
   -9.1279   -6.9382    8.5303 H   0  0  0  0  0  0  0  0  0  0  0  0
   -7.5030   -5.5082    6.1614 N   0  0  0  0  0  0  0  0  0  0  0  0
   -6.7242   -3.2844    3.9937 H   0  0  0  0  0  0  0  0  0  0  0  0
   -5.4246   -6.3574    4.3067 C   0  0  0  0  0  0  0  0  0  0  0  0
   -6.1051   -6.7931    5.0220 H   0  0  0  0  0  0  0  0  0  0  0  0
   -4.3963   -7.1401    3.7753 C   0  0  0  0  0  0  0  0  0  0  0  0
   -4.2634   -8.5761    4.2287 C   0  0  0  0  0  0  0  0  0  0  0  0
   -3.3294   -8.7217    4.7787 H   0  0  0  0  0  0  0  0  0  0  0  0
   -5.1060   -8.8500    4.8685 H   0  0  0  0  0  0  0  0  0  0  0  0
   -4.2289   -9.2616    3.3778 H   0  0  0  0  0  0  0  0  0  0  0  0
   -1.1284   -6.3806    1.2820 C   0  0  0  0  0  0  0  0  0  0  0  0
   -0.7616   -5.6349    1.9896 H   0  0  0  0  0  0  0  0  0  0  0  0
   -0.3046   -7.0039    0.9287 H   0  0  0  0  0  0  0  0  0  0  0  0
   -1.6358   -5.9244    0.4304 H   0  0  0  0  0  0  0  0  0  0  0  0
   -3.5585   -8.2397    0.5873 H   0  0  0  0  0  0  0  0  0  0  0  0
  1  2  2  0  0  0  0
  1 50  1  0  0  0  0
  2  3  2  0  0  0  0
  2  4  1  0  0  0  0
  2 46  1  0  0  0  0
  4  5  2  0  0  0  0
  4 41  1  0  0  0  0
  5  6  1  0  0  0  0
  5  7  1  0  0  0  0
  7  8  1  0  0  0  0
  7  9  2  0  0  0  0
  9 10  1  0  0  0  0
  9 39  1  0  0  0  0
 10 11  1  0  0  0  0
 10 38  1  0  0  0  0
 11 12  1  0  0  0  0
 11 37  2  0  0  0  0
 12 13  2  0  0  0  0
 13 14  1  0  0  0  0
 13 15  1  0  0  0  0
 15 16  1  0  0  0  0
 15 17  2  0  0  0  0
 17 18  1  0  0  0  0
 17 37  1  0  0  0  0
 18 19  1  0  0  0  0
 18 36  1  0  0  0  0
 19 20  1  0  0  0  0
 19 24  1  0  0  0  0
 19 35  1  0  0  0  0
 20 21  1  0  0  0  0
 20 22  1  0  0  0  0
 20 23  1  0  0  0  0
 24 25  1  0  0  0  0
 24 27  1  0  0  0  0
 24 31  1  0  0  0  0
 25 26  1  0  0  0  0
 27 28  1  0  0  0  0
 27 29  1  0  0  0  0
 27 30  1  0  0  0  0
 31 32  1  0  0  0  0
 31 33  1  0  0  0  0
 31 34  1  0  0  0  0
 39 40  1  0  0  0  0
 39 41  2  0  0  0  0
 41 42  1  0  0  0  0
 42 43  1  0  0  0  0
 42 44  1  0  0  0  0
 42 45  1  0  0  0  0
 46 47  1  0  0  0  0
 46 48  1  0  0  0  0
 46 49  1  0  0  0  0
M  END
$$$$
