50
0 1 BrC17H24N5O2S
N                    -2.703547419477    -8.848981021495     1.375174574236
S                    -2.270047544038    -7.600190454329     2.186668953946
O                    -1.367433463076    -7.903804095623     3.315228977153
C                    -3.698058044420    -6.661715102737     2.788203718527
C                    -4.056005352703    -5.430869903179     2.228323318005
H                    -3.471619538736    -4.987398323509     1.429958041854
C                    -5.171163195742    -4.739439122603     2.688853448946
H                    -5.429462418801    -3.778928689082     2.249019671552
C                    -5.953847368901    -5.274375903326     3.728585711484
N                    -7.061087995895    -4.534098578927     4.148213328056
C                    -7.874990592298    -4.655023308136     5.260511915499
N                    -8.785115433581    -3.666873578478     5.369338484190
C                    -9.580347573177    -3.744888835828     6.446024286746
H                   -10.327666298878    -2.962452354647     6.560617151333
C                    -9.476449983281    -4.755538762435     7.387058792246
Br                  -10.634123770253    -4.803967504974     8.912984010273
C                    -8.483479936076    -5.751080044664     7.186022919967
N                    -8.292803400918    -6.770270028891     8.056375156644
C                    -7.327981300277    -7.859181375503     7.887469908577
C                    -8.011106162980    -9.192928867294     8.199263094935
H                    -7.280334708114   -10.003315388054     8.166247395379
H                    -8.469816786876    -9.188610855339     9.194017109644
H                    -8.798591333425    -9.391930688210     7.466507257279
C                    -6.019838381207    -7.625537254246     8.707413978316
O                    -5.116399275931    -8.704821412158     8.393243802012
H                    -4.682463464306    -8.502726375817     7.548346179817
C                    -6.261507919373    -7.713704554129    10.214657129389
H                    -5.334331617793    -7.493340055596    10.750331567268
H                    -6.583525978922    -8.717195819055    10.502813890659
H                    -7.020284162493    -6.991446221764    10.532476617572
C                    -5.369760984567    -6.285862654898     8.344294603103
H                    -4.416688274328    -6.191452355121     8.873383377677
H                    -5.183609856495    -6.212223460241     7.267909711876
H                    -6.004921732905    -5.442025212785     8.625372211569
H                    -7.040750133449    -7.853685510330     6.834533261729
H                    -8.932232254508    -6.821238451618     8.839615696138
N                    -7.696463119213    -5.679840975580     6.096899124580
H                    -7.264107361946    -3.689243126864     3.627189928561
C                    -5.592581997796    -6.521524391274     4.270293341076
H                    -6.204774962911    -6.939182246223     5.054141291340
C                    -4.472578780670    -7.226223877649     3.823432508374
C                    -4.135220058995    -8.548585513198     4.474529592457
H                    -3.212311502827    -8.465912205201     5.056668366526
H                    -4.952880617943    -8.867070161260     5.127178261163
H                    -3.959399946480    -9.330746308928     3.731738898562
C                    -1.359455222316    -6.396407229154     1.162845504646
H                    -1.096332903530    -5.516002683973     1.751703236467
H                    -0.459095991907    -6.945869511552     0.880933156172
H                    -1.927694310263    -6.137333888629     0.267934968554
H                    -3.504662946010    -8.640009189715     0.776118623880
