17
0 1 Br2C4H8O2S
C                     1.236217274307     0.016743526786     0.812792292655
Br                    2.839802359561     1.156183608072     1.017459299577
C                     0.219675149964     0.730019340589    -0.056507796850
S                    -1.263277502406    -0.296006946438    -0.367471286259
O                    -0.803723391204    -1.658353894663    -0.680228887500
O                    -2.120399186961     0.453921040962    -1.299105662417
C                    -2.133179695033    -0.377712135311     1.240360530779
C                    -2.748936049525     0.952855842835     1.625386937621
Br                   -3.745019918315     0.749020141560     3.321838638644
H                    -3.463888566611     1.297593866628     0.881910075512
H                    -2.007765098279     1.727339838311     1.817150609149
H                    -2.895033183009    -1.144100275100     1.075668745124
H                    -1.425253804621    -0.751846762798     1.982815313564
H                     0.608219616862     0.921492271574    -1.060133689751
H                    -0.115339433087     1.678541216776     0.368280726304
H                     1.569765512598    -0.915416417594     0.362701785601
H                     0.879988701853    -0.164826445380     1.825742250965
