
  -OEChem-12102412493D

 29 29  0     1  0  0  0  0  0999 V2000
    0.5598   -0.3310   -0.4051 C   0  0  0  0  0  0  0  0  0  0  0  0
   -0.9109   -0.1479   -0.0420 C   0  0  1  0  0  0  0  0  0  0  0  0
   -1.2572   -0.6095    1.3885 C   0  0  0  0  0  0  0  0  0  0  0  0
   -0.6876   -2.3142    1.7700 S   0  0  0  0  0  0  0  0  0  0  0  0
    0.7454   -2.2356    2.1178 O   0  0  0  0  0  0  0  0  0  0  0  0
   -1.0950   -3.1746    0.6344 O   0  0  0  0  0  0  0  0  0  0  0  0
   -1.6646   -2.7191    3.2370 C   0  0  0  0  0  0  0  0  0  0  0  0
   -1.2877   -4.0690    3.8183 C   0  0  0  0  0  0  0  0  0  0  0  0
   -2.3559   -4.3387    5.3050 S   0  0  0  0  0  0  0  0  0  0  0  0
   -1.9313   -5.6639    5.8208 O   0  0  0  0  0  0  0  0  0  0  0  0
   -2.0166   -3.1796    6.1812 O   0  0  0  0  0  0  0  0  0  0  0  0
   -3.7375   -4.2894    4.7445 O   0  5  0  0  0  0  0  0  0  0  0  0
   -0.2488   -4.0939    4.1509 H   0  0  0  0  0  0  0  0  0  0  0  0
   -1.4861   -4.8848    3.1210 H   0  0  0  0  0  0  0  0  0  0  0  0
   -2.7135   -2.7111    2.9292 H   0  0  0  0  0  0  0  0  0  0  0  0
   -1.4803   -1.9247    3.9661 H   0  0  0  0  0  0  0  0  0  0  0  0
   -2.3398   -0.5909    1.5447 H   0  0  0  0  0  0  0  0  0  0  0  0
   -0.7761    0.0311    2.1297 H   0  0  0  0  0  0  0  0  0  0  0  0
   -1.3372    1.2587   -0.2376 N   0  0  0  0  0  0  0  0  0  0  0  0
   -0.7354    2.4922    0.8096 Cl  0  0  0  0  0  0  0  0  0  0  0  0
   -2.6892    1.3320   -0.6101 C   0  0  0  0  0  0  0  0  0  0  0  0
   -3.4251    2.2860   -0.5571 O   0  0  0  0  0  0  0  0  0  0  0  0
   -3.0330    0.1072   -1.0960 O   0  0  0  0  0  0  0  0  0  0  0  0
   -1.8675   -0.7600   -1.0874 C   0  0  0  0  0  0  0  0  0  0  0  0
   -1.4149   -0.7363   -2.0828 H   0  0  0  0  0  0  0  0  0  0  0  0
   -2.1816   -1.7688   -0.8320 H   0  0  0  0  0  0  0  0  0  0  0  0
    1.2072    0.1031    0.3600 H   0  0  0  0  0  0  0  0  0  0  0  0
    0.8049   -1.3922   -0.4794 H   0  0  0  0  0  0  0  0  0  0  0  0
    0.7599    0.1566   -1.3631 H   0  0  0  0  0  0  0  0  0  0  0  0
  1  2  1  0  0  0  0
  1 27  1  0  0  0  0
  1 28  1  0  0  0  0
  1 29  1  0  0  0  0
  2  3  1  0  0  0  0
  2 19  1  0  0  0  0
  2 24  1  0  0  0  0
  3  4  1  0  0  0  0
  3 17  1  0  0  0  0
  3 18  1  0  0  0  0
  4  5  2  0  0  0  0
  4  6  2  0  0  0  0
  4  7  1  0  0  0  0
  7  8  1  0  0  0  0
  7 15  1  0  0  0  0
  7 16  1  0  0  0  0
  8  9  1  0  0  0  0
  8 13  1  0  0  0  0
  8 14  1  0  0  0  0
  9 10  2  0  0  0  0
  9 11  2  0  0  0  0
  9 12  1  0  0  0  0
 19 20  1  0  0  0  0
 19 21  1  0  0  0  0
 21 22  2  0  0  0  0
 21 23  1  0  0  0  0
 23 24  1  0  0  0  0
 24 25  1  0  0  0  0
 24 26  1  0  0  0  0
M  CHG  1  12  -1
M  END
$$$$
