
  -OEChem-12102412493D

 30 31  0     0  0  0  0  0  0999 V2000
   -0.5495    0.0477    0.9334 C   0  0  0  0  0  0  0  0  0  0  0  0
   -0.2570   -0.2082   -0.0804 H   0  0  0  0  0  0  0  0  0  0  0  0
   -0.0921    1.2454    1.5097 C   0  0  0  0  0  0  0  0  0  0  0  0
    0.5528    1.9042    0.9362 H   0  0  0  0  0  0  0  0  0  0  0  0
   -0.4376    1.5999    2.8121 C   0  0  0  0  0  0  0  0  0  0  0  0
   -0.0550    2.5180    3.2430 H   0  0  0  0  0  0  0  0  0  0  0  0
   -1.2543    0.7280    3.5399 C   0  0  0  0  0  0  0  0  0  0  0  0
   -1.7046   -0.4709    2.9617 C   0  0  0  0  0  0  0  0  0  0  0  0
   -1.3612   -0.8245    1.6557 C   0  0  0  0  0  0  0  0  0  0  0  0
   -1.7022   -1.7596    1.2222 H   0  0  0  0  0  0  0  0  0  0  0  0
   -2.6664   -1.3723    4.1091 S   0  0  0  0  0  0  0  0  0  0  0  0
   -2.4010   -0.1785    5.3119 C   0  0  0  0  0  0  0  0  0  0  0  0
   -2.8888   -0.3443    6.7007 C   0  0  0  0  0  0  0  0  0  0  0  0
   -2.0277   -0.6652    7.3187 H   0  0  0  0  0  0  0  0  0  0  0  0
   -3.2811    0.5929    7.1049 H   0  0  0  0  0  0  0  0  0  0  0  0
   -3.6667   -1.1083    6.7480 H   0  0  0  0  0  0  0  0  0  0  0  0
   -1.7185    0.8752    4.8586 N   0  3  0  0  0  0  0  0  0  0  0  0
   -1.3893    2.0558    5.6874 C   0  0  0  0  0  0  0  0  0  0  0  0
   -0.3372    1.8452    6.7875 C   0  0  0  0  0  0  0  0  0  0  0  0
    0.9222    1.0544    6.4198 C   0  0  0  0  0  0  0  0  0  0  0  0
    0.7375   -0.7652    6.6897 S   0  0  0  0  0  0  0  0  0  0  0  0
    2.1151   -1.2720    6.8149 O   0  0  0  0  0  0  0  0  0  0  0  0
   -0.1040   -0.8519    7.9281 O   0  0  0  0  0  0  0  0  0  0  0  0
   -0.0081   -1.2605    5.4868 O   0  5  0  0  0  0  0  0  0  0  0  0
    1.2486    1.1948    5.3855 H   0  0  0  0  0  0  0  0  0  0  0  0
    1.7416    1.3463    7.0797 H   0  0  0  0  0  0  0  0  0  0  0  0
   -0.7874    1.3657    7.6596 H   0  0  0  0  0  0  0  0  0  0  0  0
   -0.0538    2.8570    7.1024 H   0  0  0  0  0  0  0  0  0  0  0  0
   -2.3226    2.4141    6.1298 H   0  0  0  0  0  0  0  0  0  0  0  0
   -1.0634    2.8250    4.9894 H   0  0  0  0  0  0  0  0  0  0  0  0
  1  2  1  0  0  0  0
  1  3  1  0  0  0  0
  1  9  2  0  0  0  0
  3  4  1  0  0  0  0
  3  5  2  0  0  0  0
  5  6  1  0  0  0  0
  5  7  1  0  0  0  0
  7  8  2  0  0  0  0
  7 17  1  0  0  0  0
  8  9  1  0  0  0  0
  8 11  1  0  0  0  0
  9 10  1  0  0  0  0
 11 12  1  0  0  0  0
 12 13  1  0  0  0  0
 12 17  2  0  0  0  0
 13 14  1  0  0  0  0
 13 15  1  0  0  0  0
 13 16  1  0  0  0  0
 17 18  1  0  0  0  0
 18 19  1  0  0  0  0
 18 29  1  0  0  0  0
 18 30  1  0  0  0  0
 19 20  1  0  0  0  0
 19 27  1  0  0  0  0
 19 28  1  0  0  0  0
 20 21  1  0  0  0  0
 20 25  1  0  0  0  0
 20 26  1  0  0  0  0
 21 22  2  0  0  0  0
 21 23  2  0  0  0  0
 21 24  1  0  0  0  0
M  CHG  2  17   1  24  -1
M  END
$$$$
