
  -OEChem-12122420533D

 27 27  0     0  0  0  0  0  0999 V2000
   -1.1604   -0.6145    2.2420 C   0  0  0  0  0  0  0  0  0  0  0  0
   -0.6785   -0.3662    0.8159 C   0  0  0  0  0  0  0  0  0  0  0  0
   -1.4894   -1.1734   -0.2065 C   0  0  0  0  0  0  0  0  0  0  0  0
   -1.1739   -0.9461   -1.2264 H   0  0  0  0  0  0  0  0  0  0  0  0
   -2.5431   -0.8917   -0.1366 H   0  0  0  0  0  0  0  0  0  0  0  0
   -1.3927   -2.2468   -0.0179 H   0  0  0  0  0  0  0  0  0  0  0  0
    0.7928   -0.5942    0.7167 N   0  0  0  0  0  0  0  0  0  0  0  0
    1.3365   -2.2601    0.6905 Cl  0  0  0  0  0  0  0  0  0  0  0  0
    1.3150    0.2140   -0.3493 C   0  0  0  0  0  0  0  0  0  0  0  0
    2.3810    0.0382   -0.9258 O   0  0  0  0  0  0  0  0  0  0  0  0
    0.4135    1.2189   -0.5186 N   0  0  0  0  0  0  0  0  0  0  0  0
    0.6894    2.3925   -1.3344 C   0  0  0  0  0  0  0  0  0  0  0  0
   -0.0466    2.4201   -2.6747 C   0  0  0  0  0  0  0  0  0  0  0  0
   -1.8704    2.5998   -2.5186 S   0  0  0  0  0  0  0  0  0  0  0  0
   -2.0374    3.5837   -1.4030 O   0  0  0  0  0  0  0  0  0  0  0  0
   -2.3125    3.0854   -3.8520 O   0  0  0  0  0  0  0  0  0  0  0  0
   -2.3647    1.2317   -2.1660 O   0  5  0  0  0  0  0  0  0  0  0  0
    0.1446    1.5146   -3.2558 H   0  0  0  0  0  0  0  0  0  0  0  0
    0.2886    3.2913   -3.2453 H   0  0  0  0  0  0  0  0  0  0  0  0
    1.7684    2.4030   -1.5159 H   0  0  0  0  0  0  0  0  0  0  0  0
    0.4151    3.2852   -0.7631 H   0  0  0  0  0  0  0  0  0  0  0  0
   -0.6843    1.1329    0.4407 C   0  0  0  0  0  0  0  0  0  0  0  0
   -1.6253    1.4385   -0.0132 H   0  0  0  0  0  0  0  0  0  0  0  0
   -0.4713    1.7554    1.3223 H   0  0  0  0  0  0  0  0  0  0  0  0
   -1.1111   -1.6804    2.4875 H   0  0  0  0  0  0  0  0  0  0  0  0
   -0.5450   -0.0637    2.9596 H   0  0  0  0  0  0  0  0  0  0  0  0
   -2.2011   -0.2893    2.3454 H   0  0  0  0  0  0  0  0  0  0  0  0
  1  2  1  0  0  0  0
  1 25  1  0  0  0  0
  1 26  1  0  0  0  0
  1 27  1  0  0  0  0
  2  3  1  0  0  0  0
  2  7  1  0  0  0  0
  2 22  1  0  0  0  0
  3  4  1  0  0  0  0
  3  5  1  0  0  0  0
  3  6  1  0  0  0  0
  7  8  1  0  0  0  0
  7  9  1  0  0  0  0
  9 10  2  0  0  0  0
  9 11  1  0  0  0  0
 11 12  1  0  0  0  0
 11 22  1  0  0  0  0
 12 13  1  0  0  0  0
 12 20  1  0  0  0  0
 12 21  1  0  0  0  0
 13 14  1  0  0  0  0
 13 18  1  0  0  0  0
 13 19  1  0  0  0  0
 14 15  2  0  0  0  0
 14 16  2  0  0  0  0
 14 17  1  0  0  0  0
 22 23  1  0  0  0  0
 22 24  1  0  0  0  0
M  CHG  1  17  -1
M  END
$$$$
