
  -OEChem-12102412493D

 29 29  0     1  0  0  0  0  0999 V2000
    0.6130    0.4713    2.0559 C   0  0  0  0  0  0  0  0  0  0  0  0
    0.7594    0.0888    0.5719 C   0  0  1  0  0  0  0  0  0  0  0  0
    2.0898   -0.6407    0.3757 C   0  0  0  0  0  0  0  0  0  0  0  0
    2.4070   -1.3917   -1.2785 S   0  0  0  0  0  0  0  0  0  0  0  0
    2.2375   -0.3312   -2.2968 O   0  0  0  0  0  0  0  0  0  0  0  0
    1.6181   -2.6303   -1.3819 O   0  0  0  0  0  0  0  0  0  0  0  0
    4.1654   -1.7809   -1.0971 C   0  0  0  0  0  0  0  0  0  0  0  0
    4.7482   -2.4831   -2.3079 C   0  0  0  0  0  0  0  0  0  0  0  0
    6.5415   -2.7579   -1.9450 S   0  0  0  0  0  0  0  0  0  0  0  0
    7.0619   -3.4413   -3.1548 O   0  0  0  0  0  0  0  0  0  0  0  0
    7.0603   -1.3752   -1.7264 O   0  0  0  0  0  0  0  0  0  0  0  0
    6.5138   -3.5921   -0.7076 O   0  5  0  0  0  0  0  0  0  0  0  0
    4.6858   -1.8694   -3.2083 H   0  0  0  0  0  0  0  0  0  0  0  0
    4.2907   -3.4593   -2.4770 H   0  0  0  0  0  0  0  0  0  0  0  0
    4.2572   -2.4162   -0.2118 H   0  0  0  0  0  0  0  0  0  0  0  0
    4.6802   -0.8309   -0.9312 H   0  0  0  0  0  0  0  0  0  0  0  0
    2.1719   -1.4681    1.0851 H   0  0  0  0  0  0  0  0  0  0  0  0
    2.9142    0.0547    0.5579 H   0  0  0  0  0  0  0  0  0  0  0  0
   -0.3970   -0.6811    0.0800 N   0  0  0  0  0  0  0  0  0  0  0  0
   -0.8480   -2.1347    0.8877 Cl  0  0  0  0  0  0  0  0  0  0  0  0
   -1.4296    0.1816   -0.3120 C   0  0  0  0  0  0  0  0  0  0  0  0
   -2.6018   -0.0685   -0.4449 O   0  0  0  0  0  0  0  0  0  0  0  0
   -0.8693    1.4049   -0.5406 O   0  0  0  0  0  0  0  0  0  0  0  0
    0.5648    1.3237   -0.3383 C   0  0  0  0  0  0  0  0  0  0  0  0
    0.8858    2.2467    0.1472 H   0  0  0  0  0  0  0  0  0  0  0  0
    1.0515    1.1948   -1.3045 H   0  0  0  0  0  0  0  0  0  0  0  0
    0.5805   -0.4188    2.6889 H   0  0  0  0  0  0  0  0  0  0  0  0
    1.4617    1.0867    2.3703 H   0  0  0  0  0  0  0  0  0  0  0  0
   -0.3074    1.0428    2.2125 H   0  0  0  0  0  0  0  0  0  0  0  0
  1  2  1  0  0  0  0
  1 27  1  0  0  0  0
  1 28  1  0  0  0  0
  1 29  1  0  0  0  0
  2  3  1  0  0  0  0
  2 19  1  0  0  0  0
  2 24  1  0  0  0  0
  3  4  1  0  0  0  0
  3 17  1  0  0  0  0
  3 18  1  0  0  0  0
  4  5  2  0  0  0  0
  4  6  2  0  0  0  0
  4  7  1  0  0  0  0
  7  8  1  0  0  0  0
  7 15  1  0  0  0  0
  7 16  1  0  0  0  0
  8  9  1  0  0  0  0
  8 13  1  0  0  0  0
  8 14  1  0  0  0  0
  9 10  2  0  0  0  0
  9 11  2  0  0  0  0
  9 12  1  0  0  0  0
 19 20  1  0  0  0  0
 19 21  1  0  0  0  0
 21 22  2  0  0  0  0
 21 23  1  0  0  0  0
 23 24  1  0  0  0  0
 24 25  1  0  0  0  0
 24 26  1  0  0  0  0
M  CHG  1  12  -1
M  END
$$$$
