29
-1 1 C7ClH11NO7S2
C                     0.370795593372     1.278803551184    -0.290864296469
C                     0.789671995268     0.113805734653     0.613421989771
C                     2.247466954488    -0.312055843466     0.416375203475
S                     2.592194034897    -0.912043653724    -1.282157492220
O                     2.779209023597     0.265601895025    -2.153625403794
O                     1.514771993379    -1.874266621118    -1.609231564846
C                     4.160937748635    -1.781201495103    -1.058389246492
C                     4.712426631580    -2.321467233215    -2.363939689365
S                     6.294456439881    -3.190733958096    -1.958698728951
O                     6.778111292131    -3.694036800337    -3.267968642019
O                     7.125725452273    -2.113914443042    -1.345942486446
O                     5.864130918609    -4.243841254011    -0.993398966501
H                     4.945122387899    -1.523960949263    -3.071370121739
H                     4.043833705346    -3.054473673322    -2.818869903018
H                     3.969769988856    -2.597885351673    -0.357273602193
H                     4.857932097317    -1.062836076055    -0.617211078519
H                     2.495060705613    -1.126510726248     1.101696638446
H                     2.925379051243     0.526349441118     0.591525144803
N                     0.579578418928     0.409704014550     2.054175214972
Cl                    1.278417018982     1.845008095634     2.722944161421
C                    -0.750195401811     0.131210854663     2.420732755066
O                    -1.360509819579     0.549813767192     3.373599292572
O                    -1.241169716819    -0.745047126688     1.506171651890
C                    -0.210059454993    -1.064069180667     0.531748128188
H                    -0.677516907213    -1.157889850028    -0.444402354757
H                     0.252442056853    -2.012176224255     0.812108934372
H                     1.019212675346     2.144369237113    -0.138471017824
H                     0.447832301517     0.988085932054    -1.339810703726
H                    -0.662153231171     1.568624347235    -0.074137552586
