
  -OEChem-12122420533D

 23 23  0     1  0  0  0  0  0999 V2000
   -1.5476    0.9561   -1.1328 O   0  0  0  0  0  0  0  0  0  0  0  0
   -1.3464    0.0003   -0.1078 C   0  0  2  0  0  0  0  0  0  0  0  0
   -2.3463   -0.3546    0.1504 H   0  0  0  0  0  0  0  0  0  0  0  0
   -0.6895    0.6035    1.1688 C   0  0  1  0  0  0  0  0  0  0  0  0
   -1.2615    0.1175    2.3813 O   0  0  0  0  0  0  0  0  0  0  0  0
   -2.1702    0.4540    2.4359 H   0  0  0  0  0  0  0  0  0  0  0  0
   -0.7288    1.6975    1.1292 H   0  0  0  0  0  0  0  0  0  0  0  0
    0.7405    0.0616    1.1381 C   0  0  2  0  0  0  0  0  0  0  0  0
    1.8617    1.2752    0.1713 S   0  0  0  0  0  0  0  0  0  0  0  0
    1.1327    1.9891   -0.9026 O   0  0  0  0  0  0  0  0  0  0  0  0
    3.1010    0.5756   -0.1540 O   0  0  0  0  0  0  0  0  0  0  0  0
    2.1753    2.4144    1.3342 O   0  0  0  0  0  0  0  0  0  0  0  0
    1.9944    3.2923    0.9442 H   0  0  0  0  0  0  0  0  0  0  0  0
    1.2307    0.0381    2.1145 H   0  0  0  0  0  0  0  0  0  0  0  0
    0.6460   -1.1816    0.4939 N   0  0  0  0  0  0  0  0  0  0  0  0
    1.5139   -1.6546    0.2646 H   0  0  0  0  0  0  0  0  0  0  0  0
   -0.4462   -1.2208   -0.5006 C   0  0  2  0  0  0  0  0  0  0  0  0
    0.0367   -1.2114   -1.9524 C   0  0  0  0  0  0  0  0  0  0  0  0
    0.6386   -2.1053   -2.1485 H   0  0  0  0  0  0  0  0  0  0  0  0
    0.6485   -0.3349   -2.1802 H   0  0  0  0  0  0  0  0  0  0  0  0
   -0.8167   -1.2163   -2.6357 H   0  0  0  0  0  0  0  0  0  0  0  0
   -1.0114   -2.1435   -0.3311 H   0  0  0  0  0  0  0  0  0  0  0  0
   -0.6982    1.4010   -1.3169 H   0  0  0  0  0  0  0  0  0  0  0  0
  1  2  1  0  0  0  0
  1 23  1  0  0  0  0
  2  3  1  0  0  0  0
  2  4  1  0  0  0  0
  2 17  1  0  0  0  0
  4  5  1  0  0  0  0
  4  7  1  0  0  0  0
  4  8  1  0  0  0  0
  5  6  1  0  0  0  0
  8  9  1  0  0  0  0
  8 14  1  0  0  0  0
  8 15  1  0  0  0  0
  9 10  2  0  0  0  0
  9 11  2  0  0  0  0
  9 12  1  0  0  0  0
 12 13  1  0  0  0  0
 15 16  1  0  0  0  0
 15 17  1  0  0  0  0
 17 18  1  0  0  0  0
 17 22  1  0  0  0  0
 18 19  1  0  0  0  0
 18 20  1  0  0  0  0
 18 21  1  0  0  0  0
M  END
$$$$
