30
0 1 C11H13NO3S2
C                     0.351674621548     0.042008780495     1.647104566142
H                     0.952563684097    -0.188366782469     0.772504026025
C                     0.645051398495     1.180819289070     2.414648534795
H                     1.469022903691     1.825633002329     2.124001423237
C                    -0.096097094470     1.495623795387     3.552986149447
H                     0.150998743234     2.371270079634     4.142297814771
C                    -1.144227462843     0.645274541942     3.911897036513
C                    -1.452732553684    -0.475039259873     3.127589908600
C                    -0.704873696805    -0.799217404921     1.996501608976
H                    -0.935866597903    -1.681235443168     1.407000752215
S                    -2.834837878268    -1.318013878544     3.797217953084
C                    -2.943603723874    -0.187994061792     5.096968947109
C                    -4.180132657099    -0.131583739384     5.934116271628
H                    -3.964426611388     0.191763772072     6.949530804004
H                    -4.902263362505     0.547162324778     5.463250426037
H                    -4.616450607564    -1.128021416058     6.002183579513
N                    -2.019760503166     0.778004706711     5.005272961291
C                    -1.784283407302     1.788916454325     6.055050224396
C                    -0.512324408790     1.549120939041     6.889113541173
C                    -0.523535578342     0.392553143022     7.889181352344
S                    -0.637530499139    -1.265712156792     7.108104316834
O                    -0.076545308895    -2.215686010578     8.082740463939
O                    -2.128024117265    -1.440469046455     6.893493847869
O                     0.083875132944    -1.123553461741     5.813818500995
H                     0.416435492635     0.394388700013     8.446198173893
H                    -1.348679290436     0.457164458046     8.604048798902
H                    -0.348398723567     2.481493242236     7.444493659943
H                     0.343867654284     1.417206326314     6.225024828479
H                    -2.665484300684     1.819261973302     6.693946461123
H                    -1.716971383466     2.757776976141     5.551786117927
