
  -OEChem-12102412493D

 27 27  0     0  0  0  0  0  0999 V2000
   -1.1345   -0.6116    2.2898 C   0  0  0  0  0  0  0  0  0  0  0  0
   -0.7101   -0.3618    0.8459 C   0  0  0  0  0  0  0  0  0  0  0  0
   -1.5682   -1.1571   -0.1476 C   0  0  0  0  0  0  0  0  0  0  0  0
   -1.3031   -0.9144   -1.1784 H   0  0  0  0  0  0  0  0  0  0  0  0
   -2.6188   -0.8832   -0.0207 H   0  0  0  0  0  0  0  0  0  0  0  0
   -1.4575   -2.2323    0.0213 H   0  0  0  0  0  0  0  0  0  0  0  0
    0.7534   -0.5948    0.6847 N   0  0  0  0  0  0  0  0  0  0  0  0
    1.2913   -2.2626    0.6416 Cl  0  0  0  0  0  0  0  0  0  0  0  0
    1.2283    0.2075   -0.4093 C   0  0  0  0  0  0  0  0  0  0  0  0
    2.2728    0.0367   -1.0207 O   0  0  0  0  0  0  0  0  0  0  0  0
    0.3106    1.2050   -0.5553 N   0  0  0  0  0  0  0  0  0  0  0  0
    0.5882    2.3668   -1.3916 C   0  0  0  0  0  0  0  0  0  0  0  0
   -0.6403    3.2086   -1.7172 C   0  0  0  0  0  0  0  0  0  0  0  0
   -1.9106    2.3782   -2.7646 S   0  0  0  0  0  0  0  0  0  0  0  0
   -1.1210    1.7022   -3.8299 O   0  0  0  0  0  0  0  0  0  0  0  0
   -2.6189    1.4337   -1.8423 O   0  0  0  0  0  0  0  0  0  0  0  0
   -2.7609    3.5080   -3.2291 O   0  5  0  0  0  0  0  0  0  0  0  0
   -0.3119    4.0727   -2.3007 H   0  0  0  0  0  0  0  0  0  0  0  0
   -1.1502    3.5804   -0.8234 H   0  0  0  0  0  0  0  0  0  0  0  0
    1.0268    1.9968   -2.3206 H   0  0  0  0  0  0  0  0  0  0  0  0
    1.3361    3.0076   -0.8973 H   0  0  0  0  0  0  0  0  0  0  0  0
   -0.7190    1.1386    0.4749 C   0  0  0  0  0  0  0  0  0  0  0  0
   -1.6867    1.4370    0.0693 H   0  0  0  0  0  0  0  0  0  0  0  0
   -0.4487    1.7523    1.3491 H   0  0  0  0  0  0  0  0  0  0  0  0
   -1.0823   -1.6788    2.5285 H   0  0  0  0  0  0  0  0  0  0  0  0
   -0.4857   -0.0689    2.9840 H   0  0  0  0  0  0  0  0  0  0  0  0
   -2.1682   -0.2812    2.4378 H   0  0  0  0  0  0  0  0  0  0  0  0
  1  2  1  0  0  0  0
  1 25  1  0  0  0  0
  1 26  1  0  0  0  0
  1 27  1  0  0  0  0
  2  3  1  0  0  0  0
  2  7  1  0  0  0  0
  2 22  1  0  0  0  0
  3  4  1  0  0  0  0
  3  5  1  0  0  0  0
  3  6  1  0  0  0  0
  7  8  1  0  0  0  0
  7  9  1  0  0  0  0
  9 10  2  0  0  0  0
  9 11  1  0  0  0  0
 11 12  1  0  0  0  0
 11 22  1  0  0  0  0
 12 13  1  0  0  0  0
 12 20  1  0  0  0  0
 12 21  1  0  0  0  0
 13 14  1  0  0  0  0
 13 18  1  0  0  0  0
 13 19  1  0  0  0  0
 14 15  2  0  0  0  0
 14 16  2  0  0  0  0
 14 17  1  0  0  0  0
 22 23  1  0  0  0  0
 22 24  1  0  0  0  0
M  CHG  1  17  -1
M  END
$$$$
