
  -OEChem-12122420533D

 23 23  0     1  0  0  0  0  0999 V2000
   -1.0857    0.8205   -1.4867 O   0  0  0  0  0  0  0  0  0  0  0  0
   -1.1758    0.0321   -0.2992 C   0  0  2  0  0  0  0  0  0  0  0  0
   -2.2189   -0.2009   -0.0475 H   0  0  0  0  0  0  0  0  0  0  0  0
   -0.4556    0.7163    0.8865 C   0  0  1  0  0  0  0  0  0  0  0  0
   -0.9586    0.3053    2.1544 O   0  0  0  0  0  0  0  0  0  0  0  0
   -1.7538    0.8210    2.3583 H   0  0  0  0  0  0  0  0  0  0  0  0
   -0.4813    1.8088    0.7894 H   0  0  0  0  0  0  0  0  0  0  0  0
    0.9891    0.1444    0.7806 C   0  0  2  0  0  0  0  0  0  0  0  0
    2.2594    1.4419    0.6862 S   0  0  0  0  0  0  0  0  0  0  0  0
    2.0858    2.3726    1.7879 O   0  0  0  0  0  0  0  0  0  0  0  0
    2.3533    1.8925   -0.7041 O   0  0  0  0  0  0  0  0  0  0  0  0
    3.6196    0.5891    1.0383 O   0  0  0  0  0  0  0  0  0  0  0  0
    3.9032    0.1138    0.2323 H   0  0  0  0  0  0  0  0  0  0  0  0
    1.2054   -0.3917    1.7087 H   0  0  0  0  0  0  0  0  0  0  0  0
    1.0745   -0.7376   -0.3812 N   0  0  0  0  0  0  0  0  0  0  0  0
    1.2594   -0.1524   -1.2004 H   0  0  0  0  0  0  0  0  0  0  0  0
   -0.3198   -1.2276   -0.5341 C   0  0  2  0  0  0  0  0  0  0  0  0
   -0.5360   -1.9414   -1.8600 C   0  0  0  0  0  0  0  0  0  0  0  0
    0.1373   -2.7995   -1.9382 H   0  0  0  0  0  0  0  0  0  0  0  0
   -0.3538   -1.2685   -2.7017 H   0  0  0  0  0  0  0  0  0  0  0  0
   -1.5664   -2.3027   -1.9336 H   0  0  0  0  0  0  0  0  0  0  0  0
   -0.5179   -1.9172    0.2949 H   0  0  0  0  0  0  0  0  0  0  0  0
   -1.4378    1.7068   -1.3108 H   0  0  0  0  0  0  0  0  0  0  0  0
  1  2  1  0  0  0  0
  1 23  1  0  0  0  0
  2  3  1  0  0  0  0
  2  4  1  0  0  0  0
  2 17  1  0  0  0  0
  4  5  1  0  0  0  0
  4  7  1  0  0  0  0
  4  8  1  0  0  0  0
  5  6  1  0  0  0  0
  8  9  1  0  0  0  0
  8 14  1  0  0  0  0
  8 15  1  0  0  0  0
  9 10  2  0  0  0  0
  9 11  2  0  0  0  0
  9 12  1  0  0  0  0
 12 13  1  0  0  0  0
 15 16  1  0  0  0  0
 15 17  1  0  0  0  0
 17 18  1  0  0  0  0
 17 22  1  0  0  0  0
 18 19  1  0  0  0  0
 18 20  1  0  0  0  0
 18 21  1  0  0  0  0
M  END
$$$$
