23
0 1 C5H11NO5S
O                    -1.547555294179     0.956109473039    -1.132750111862
C                    -1.346376200088     0.000257513506    -0.107796594044
H                    -2.346254190102    -0.354635532087     0.150441461421
C                    -0.689478238379     0.603472616818     1.168777221337
O                    -1.261536080749     0.117521146058     2.381283705283
H                    -2.170197244326     0.453993157232     2.435875049822
H                    -0.728798624016     1.697546124163     1.129224188232
C                     0.740456048710     0.061644991002     1.138110952178
S                     1.861660000677     1.275169119767     0.171262658456
O                     1.132728304469     1.989124894534    -0.902571328735
O                     3.101007157098     0.575585099527    -0.154004490957
O                     2.175338941776     2.414372447169     1.334168573972
H                     1.994429239892     3.292270930790     0.944214008560
H                     1.230731564044     0.038052312995     2.114542375304
N                     0.645959567133    -1.181578573699     0.493880122324
H                     1.513940502520    -1.654577193953     0.264592156114
C                    -0.446167716391    -1.220834870683    -0.500629031506
C                     0.036699138074    -1.211359582302    -1.952404001985
H                     0.638554568169    -2.105338475456    -2.148540968611
H                     0.648457108939    -0.334883574649    -2.180217029598
H                    -0.816688687958    -1.216324232933    -2.635685247138
H                    -1.011443718881    -2.143503995331    -0.331087447843
H                    -0.698177271418     1.400969555500    -1.316852456277
