17
0 1 Br2C4H8O2S
C                     0.749223520237     1.225907970891    -1.441841102419
Br                    1.588860290151    -0.063020047400    -2.675194591372
C                     0.215485966201     0.570912057290    -0.180585385047
S                    -1.317368118302    -0.387130309596    -0.497929904934
O                    -0.983468548676    -1.779377140794    -0.828895139300
O                    -2.158025438216     0.423906617582    -1.396675933324
C                    -2.110352392484    -0.392700677629     1.152878563010
C                    -3.360615506367    -1.251013614170     1.088360621305
Br                   -4.232139780606    -1.266021900089     2.862748441227
H                    -3.132582325159    -2.287224033034     0.848688986406
H                    -4.095349614815    -0.852749701817     0.391499270732
H                    -1.382505186759    -0.798032312558     1.860068775389
H                    -2.345041522314     0.643704303821     1.404090743233
H                    -0.069643732087     1.353630452339     0.531716351096
H                     0.935194982062    -0.106023665176     0.283645234502
H                     1.527741793431     1.943375958307    -1.185686327672
H                    -0.045791026982     1.717483351834    -2.000766565623
