29
-1 1 C7ClH11NO7S2
C                    -0.057428993830     1.062315201635    -0.327619183362
C                     0.842889770397     0.190635957850     0.556084167882
C                     2.336324730088     0.407142130087     0.297280062138
S                     2.813254814219     0.034687116359    -1.433725132706
O                     2.642860599067     1.272946697193    -2.223245873252
O                     2.059542288995    -1.174115301741    -1.839905832470
C                     4.573236065044    -0.349834820556    -1.275295963544
C                     4.842374663039    -1.700197593036    -0.637766411632
S                     6.619087269574    -1.756620446360    -0.136401961389
O                     6.776465561589    -3.098788131842     0.477193238667
O                     7.353914111037    -1.549816018599    -1.415257530692
O                     6.718456769456    -0.611956713950     0.817431859141
H                     4.643252919983    -2.521894117776    -1.326292448538
H                     4.276704920954    -1.855406200277     0.284084525672
H                     5.006790466903     0.462878010848    -0.684035873022
H                     4.969930607127    -0.290358080257    -2.291794097386
H                     2.930768546505    -0.232273388237     0.952972716914
H                     2.618193315606     1.448632911998     0.465621953439
N                     0.584745919059     0.393851220012     2.003541703210
Cl                    0.644123793179     1.998685216401     2.646723852002
C                    -0.484637841252    -0.414197041283     2.429466507422
O                    -1.175593304274    -0.276435734767     3.408885532786
O                    -0.597216175824    -1.431341311083     1.535821715592
C                     0.424587785072    -1.298321342414     0.510623178142
H                    -0.006195702034    -1.588171518385    -0.443270497621
H                     1.255295462153    -1.961780022013     0.759909079233
H                     0.184462904600     2.120778501186    -0.209847133221
H                     0.081763588871     0.800772259860    -1.378023764882
H                    -1.107610241401     0.907981356073    -0.060593748722
