
  -OEChem-12122420533D

 30 31  0     0  0  0  0  0  0999 V2000
   -0.2111    0.5092    1.2702 C   0  0  0  0  0  0  0  0  0  0  0  0
    0.2747    0.3960    0.3054 H   0  0  0  0  0  0  0  0  0  0  0  0
    0.2621    1.4752    2.1778 C   0  0  0  0  0  0  0  0  0  0  0  0
    1.1129    2.0941    1.9113 H   0  0  0  0  0  0  0  0  0  0  0  0
   -0.3241    1.6594    3.4273 C   0  0  0  0  0  0  0  0  0  0  0  0
    0.0585    2.4069    4.1195 H   0  0  0  0  0  0  0  0  0  0  0  0
   -1.4065    0.8301    3.7455 C   0  0  0  0  0  0  0  0  0  0  0  0
   -1.8807   -0.1396    2.8417 C   0  0  0  0  0  0  0  0  0  0  0  0
   -1.2918   -0.3133    1.5873 C   0  0  0  0  0  0  0  0  0  0  0  0
   -1.6570   -1.0602    0.8893 H   0  0  0  0  0  0  0  0  0  0  0  0
   -3.2308   -1.0127    3.5451 S   0  0  0  0  0  0  0  0  0  0  0  0
   -3.1156   -0.0807    4.9885 C   0  0  0  0  0  0  0  0  0  0  0  0
   -4.0290   -0.2906    6.1516 C   0  0  0  0  0  0  0  0  0  0  0  0
   -3.4548   -0.4481    7.0684 H   0  0  0  0  0  0  0  0  0  0  0  0
   -4.6732    0.5829    6.2966 H   0  0  0  0  0  0  0  0  0  0  0  0
   -4.6650   -1.1615    5.9862 H   0  0  0  0  0  0  0  0  0  0  0  0
   -2.1482    0.8229    4.9451 N   0  3  0  0  0  0  0  0  0  0  0  0
   -1.7935    1.7028    6.0860 C   0  0  0  0  0  0  0  0  0  0  0  0
   -0.6828    1.0680    6.9444 C   0  0  0  0  0  0  0  0  0  0  0  0
    0.1564    2.1191    7.6758 C   0  0  0  0  0  0  0  0  0  0  0  0
    1.2142    3.0554    6.4945 S   0  0  0  0  0  0  0  0  0  0  0  0
    1.8725    1.9827    5.6902 O   0  0  0  0  0  0  0  0  0  0  0  0
    0.2186    3.8277    5.6662 O   0  0  0  0  0  0  0  0  0  0  0  0
    2.0984    3.8853    7.3317 O   0  5  0  0  0  0  0  0  0  0  0  0
   -0.4484    2.8478    8.2235 H   0  0  0  0  0  0  0  0  0  0  0  0
    0.8401    1.6316    8.3742 H   0  0  0  0  0  0  0  0  0  0  0  0
   -0.0051    0.5000    6.3001 H   0  0  0  0  0  0  0  0  0  0  0  0
   -1.1248    0.3652    7.6617 H   0  0  0  0  0  0  0  0  0  0  0  0
   -2.7016    1.8857    6.6616 H   0  0  0  0  0  0  0  0  0  0  0  0
   -1.4474    2.6534    5.6733 H   0  0  0  0  0  0  0  0  0  0  0  0
  1  2  1  0  0  0  0
  1  3  1  0  0  0  0
  1  9  2  0  0  0  0
  3  4  1  0  0  0  0
  3  5  2  0  0  0  0
  5  6  1  0  0  0  0
  5  7  1  0  0  0  0
  7  8  2  0  0  0  0
  7 17  1  0  0  0  0
  8  9  1  0  0  0  0
  8 11  1  0  0  0  0
  9 10  1  0  0  0  0
 11 12  1  0  0  0  0
 12 13  1  0  0  0  0
 12 17  2  0  0  0  0
 13 14  1  0  0  0  0
 13 15  1  0  0  0  0
 13 16  1  0  0  0  0
 17 18  1  0  0  0  0
 18 19  1  0  0  0  0
 18 29  1  0  0  0  0
 18 30  1  0  0  0  0
 19 20  1  0  0  0  0
 19 27  1  0  0  0  0
 19 28  1  0  0  0  0
 20 21  1  0  0  0  0
 20 25  1  0  0  0  0
 20 26  1  0  0  0  0
 21 22  2  0  0  0  0
 21 23  2  0  0  0  0
 21 24  1  0  0  0  0
M  CHG  2  17   1  24  -1
M  END
$$$$
