
  -OEChem-12102412493D

 30 31  0     0  0  0  0  0  0999 V2000
   -0.5717    1.1854    1.0931 C   0  0  0  0  0  0  0  0  0  0  0  0
   -0.2151    1.2698    0.0710 H   0  0  0  0  0  0  0  0  0  0  0  0
    0.1801    1.7390    2.1421 C   0  0  0  0  0  0  0  0  0  0  0  0
    1.1162    2.2438    1.9229 H   0  0  0  0  0  0  0  0  0  0  0  0
   -0.2582    1.6630    3.4636 C   0  0  0  0  0  0  0  0  0  0  0  0
    0.3271    2.1067    4.2609 H   0  0  0  0  0  0  0  0  0  0  0  0
   -1.4702    1.0177    3.7190 C   0  0  0  0  0  0  0  0  0  0  0  0
   -2.2043    0.4412    2.6730 C   0  0  0  0  0  0  0  0  0  0  0  0
   -1.7748    0.5275    1.3494 C   0  0  0  0  0  0  0  0  0  0  0  0
   -2.3604    0.0981    0.5422 H   0  0  0  0  0  0  0  0  0  0  0  0
   -3.6457   -0.3308    3.3017 S   0  0  0  0  0  0  0  0  0  0  0  0
   -3.2499    0.1521    4.9106 C   0  0  0  0  0  0  0  0  0  0  0  0
   -3.9453   -0.4817    6.0716 C   0  0  0  0  0  0  0  0  0  0  0  0
   -3.4072   -1.3939    6.3584 H   0  0  0  0  0  0  0  0  0  0  0  0
   -4.0161    0.1970    6.9180 H   0  0  0  0  0  0  0  0  0  0  0  0
   -4.9641   -0.7419    5.7847 H   0  0  0  0  0  0  0  0  0  0  0  0
   -2.0888    0.8183    4.9669 N   0  3  0  0  0  0  0  0  0  0  0  0
   -1.5800    1.4764    6.1864 C   0  0  0  0  0  0  0  0  0  0  0  0
   -1.7139    3.0104    6.1792 C   0  0  0  0  0  0  0  0  0  0  0  0
   -3.1135    3.6044    6.3412 C   0  0  0  0  0  0  0  0  0  0  0  0
   -4.2443    3.2392    4.9410 S   0  0  0  0  0  0  0  0  0  0  0  0
   -5.2717    4.2933    4.9603 O   0  0  0  0  0  0  0  0  0  0  0  0
   -3.3589    3.1829    3.7457 O   0  0  0  0  0  0  0  0  0  0  0  0
   -4.7888    1.8681    5.2903 O   0  5  0  0  0  0  0  0  0  0  0  0
   -3.6190    3.2593    7.2475 H   0  0  0  0  0  0  0  0  0  0  0  0
   -3.0353    4.6934    6.3834 H   0  0  0  0  0  0  0  0  0  0  0  0
   -1.2761    3.4137    5.2642 H   0  0  0  0  0  0  0  0  0  0  0  0
   -1.0938    3.3605    7.0144 H   0  0  0  0  0  0  0  0  0  0  0  0
   -0.5259    1.1996    6.2788 H   0  0  0  0  0  0  0  0  0  0  0  0
   -2.1012    1.0469    7.0406 H   0  0  0  0  0  0  0  0  0  0  0  0
  1  2  1  0  0  0  0
  1  3  1  0  0  0  0
  1  9  2  0  0  0  0
  3  4  1  0  0  0  0
  3  5  2  0  0  0  0
  5  6  1  0  0  0  0
  5  7  1  0  0  0  0
  7  8  2  0  0  0  0
  7 17  1  0  0  0  0
  8  9  1  0  0  0  0
  8 11  1  0  0  0  0
  9 10  1  0  0  0  0
 11 12  1  0  0  0  0
 12 13  1  0  0  0  0
 12 17  2  0  0  0  0
 13 14  1  0  0  0  0
 13 15  1  0  0  0  0
 13 16  1  0  0  0  0
 17 18  1  0  0  0  0
 18 19  1  0  0  0  0
 18 29  1  0  0  0  0
 18 30  1  0  0  0  0
 19 20  1  0  0  0  0
 19 27  1  0  0  0  0
 19 28  1  0  0  0  0
 20 21  1  0  0  0  0
 20 25  1  0  0  0  0
 20 26  1  0  0  0  0
 21 22  2  0  0  0  0
 21 23  2  0  0  0  0
 21 24  1  0  0  0  0
M  CHG  2  17   1  24  -1
M  END
$$$$
