17
0 1 Br2C4H8O2S
C                     1.006876125787     0.808632859235    -1.397514081232
Br                    2.597913265771     1.926199919112    -1.043870131986
C                     0.198185755573     0.675618833227    -0.119473794090
S                    -1.268956854485    -0.363718885367    -0.456217532470
O                    -0.802012614200    -1.721397252320    -0.786753434781
O                    -2.145142005177     0.368224707605    -1.387434250222
C                    -2.098413694227    -0.428019007148     1.172917932467
C                    -3.364458031430    -1.256091371137     1.044596845758
Br                   -4.269216857043    -1.332286740434     2.799885697044
H                    -3.153255633039    -2.285837636368     0.763909362607
H                    -4.075779112243    -0.811306696429     0.351889372244
H                    -1.393013265011    -0.876546589310     1.875855047059
H                    -2.318335700068     0.601609807201     1.463656639308
H                    -0.166548821948     1.644261704456     0.229230143016
H                     0.769572500696     0.180967445702     0.669099534036
H                     0.448514622612     1.311024823451    -2.184649370289
H                     1.378469654892    -0.151822698610    -1.748401054253
