25   
torsion grid (-165,)
C        4.5613077618    1.6177087728   -5.0888361889
C        3.8412442393    0.8298795522   -4.2331764248
C        5.5581916200   -0.5270707099   -4.5608893467
C        1.3998003867    0.2776353373   -4.3175249544
C       -0.8448654962   -0.4338607004   -4.1097642821
C        4.9899546009   -2.9971759009   -6.4379393614
C        2.4853520512    1.1334856475   -3.6745076810
N        4.4185222246   -0.3910965670   -3.9395415574
N        6.3739332028   -1.6589378424   -4.4226698097
O        1.5056170325   -0.3348474320   -5.3605797200
O        7.3460991247   -1.8218139259   -6.7774875381
O        7.2182094497   -3.8810035351   -5.2618118416
O        0.2699829903    0.3128906789   -3.5748919020
S        6.0406842617    0.8333577599   -5.5507042493
S        6.6450737418   -2.6505932181   -5.8019135033
H        4.2891818949    2.5797494602   -5.5035885542
H       -1.6562027636   -0.2947058004   -3.3958337382
H       -0.5847432046   -1.4910556103   -4.1979121348
H       -1.1243051532   -0.0482887064   -5.0929440698
H        5.1266563730   -3.5752742855   -7.3533800898
H        4.4474777697   -3.5760973995   -5.6900917122
H        4.4832613306   -2.0549805389   -6.6490672200
H        2.4618616949    0.9700261515   -2.5933563315
H        2.2208278731    2.1820040620   -3.8445746319
H        6.1153681475   -2.2302538210   -3.6185288285
25   
torsion grid (-150,)
C        4.4621778363    1.5543257151   -5.1483446534
C        3.7673326030    0.8100733382   -4.2365261324
C        5.4653293488   -0.5732166508   -4.5536005656
C        1.3087416995    0.3152424059   -4.2369206022
C       -0.9471625791   -0.3291859820   -3.9465046404
C        5.2254306279   -2.9572980218   -6.6204257733
C        2.4355771665    1.1532554118   -3.6436122358
N        4.3450664110   -0.4033791670   -3.9082703487
N        6.2800215202   -1.6942879544   -4.3853244986
O        1.3653498178   -0.3174844927   -5.2712869078
O        7.6386502530   -1.8469755826   -6.5438380138
O        7.2060310024   -3.9102212981   -5.1012456802
O        0.2039863634    0.3949719487   -3.4599844469
S        5.9309504928    0.7473618275   -5.6119608349
S        6.7572451709   -2.6606031289   -5.7122887911
H        4.1818929722    2.4986116340   -5.5969688899
H       -1.7320589674   -0.1537439877   -3.2112657284
H       -0.7197954044   -1.3948572101   -4.0221925553
H       -1.2458720231    0.0461279965   -4.9280272356
H        5.4950871000   -3.5640304340   -7.4864764453
H        4.5367921141   -3.4927056752   -5.9665939117
H        4.8073299785   -2.0017727758   -6.9379156742
H        2.4430100954    1.0077134275   -2.5597593519
H        2.1901672767    2.2050611068   -3.8222932921
H        6.0994777443   -2.2485204521   -3.5508418456
25   
torsion grid (-135,)
C        4.5388194872    1.4655391085   -5.0367427830
C        4.2684686659    0.8772768384   -3.8357975294
C        5.5029510015   -0.7437624647   -4.7118630070
C        2.8153808220    2.7633902987   -2.8481451571
C        1.4982558600    4.3798531132   -1.7309655708
C        5.3475668396   -3.2953970360   -7.0193035738
C        3.4625521470    1.4042187254   -2.6810091335
N        4.8131523672   -0.3901955317   -3.6651553364
N        6.1502365653   -1.9783674689   -4.7608475338
O        2.8416432678    3.4750909216   -3.8338571371
O        7.4741417372   -1.7294175581   -6.9348294969
O        7.5068796717   -3.8982549344   -5.5747066375
O        2.1683954816    3.1010947585   -1.7077077773
S        5.5661005597    0.4403901439   -6.0061065104
S        6.8050597875   -2.7384242735   -6.1178078449
H        4.2060637234    2.4262229115   -5.3993175133
H        1.0401546364    4.4842839973   -0.7478087441
H        0.7378641126    4.3967982353   -2.5150746704
H        2.2171978232    5.1827160944   -1.9091677005
H        5.7065978342   -3.7577922946   -7.9405266956
H        4.8162413174   -4.0179144803   -6.3998880591
H        4.7271552706   -2.4274062840   -7.2466406383
H        2.6710217339    0.6877818976   -2.4324851417
H        4.0931820115    1.4428342152   -1.7854511011
H        6.3049114233   -2.4569414581   -3.8775802718
25   
torsion grid (-120,)
C        3.6735559876    1.1188619041   -5.3233065569
C        3.8569375133    0.7613620891   -4.0159048240
C        4.7298054642   -1.0447832701   -4.9613272939
C        2.8362680127    2.8728991515   -2.9466348099
C        1.9672368242    4.7227273591   -1.7560691239
C        6.2342944231   -3.3220028597   -7.4050331567
C        3.5173272324    1.5317025268   -2.7696963977
N        4.4657199845   -0.4702018501   -3.8227878717
N        5.2614067459   -2.3409601912   -5.0550297662
O        2.5178681757    3.4052858486   -3.9928945849
O        7.4336303748   -1.3424687085   -6.1246322518
O        7.4153429788   -3.6688924600   -5.0463395969
O        2.6143760070    3.4320210720   -1.7344128164
S        4.2462203255   -0.1408496959   -6.3770101249
S        6.7799023695   -2.6177279477   -5.8418183969
H        3.2596665727    2.0365454496   -5.7125515012
H        1.8724032461    5.0161234035   -0.7109805768
H        0.9843975673    4.6474750735   -2.2268534393
H        2.5760277516    5.4439786411   -2.3059350629
H        7.1369442504   -3.5516070411   -7.9741872823
H        5.6614143291   -4.2246705414   -7.1947385724
H        5.6318929401   -2.5789698552   -7.9286369674
H        2.8790835926    0.9159944965   -2.1256931667
H        4.4289533710    1.6952239789   -2.1837731543
H        5.2893624212   -2.7992016150   -4.1431123632
25   
torsion grid (-105,)
C        3.5450317656    0.9795715558   -5.3166031623
C        3.8313039417    0.6932010109   -4.0096763765
C        4.6704916099   -1.1451758283   -4.9241094033
C        2.8501445367    2.8409199196   -2.9772742868
C        2.0323920858    4.7354848639   -1.8215028914
C        6.3232768200   -3.0414162535   -7.4361355685
C        3.5649962459    1.5200040485   -2.7821446037
N        4.4788292863   -0.5151974073   -3.8011116883
N        5.2394287675   -2.4293129995   -5.0030566159
O        2.4531227407    3.3162378973   -4.0242555421
O        7.5053933822   -1.3315438450   -5.7881514932
O        7.3662323437   -3.7902977880   -5.1018103070
O        2.7008319584    3.4559545190   -1.7816283673
S        4.0578476479   -0.3266950708   -6.3426685930
S        6.7982462922   -2.6102601936   -5.7553327269
H        3.0794251422    1.8664512143   -5.7186772566
H        2.0034600891    5.0786912108   -0.7877819440
H        1.0214775119    4.6239721387   -2.2200443892
H        2.5908901222    5.4365558353   -2.4457793644
H        7.2526555364   -3.2348947291   -7.9749260825
H        5.6980746679   -3.9327987337   -7.3966987480
H        5.7959841573   -2.1977135183   -7.8818018844
H        2.9838362165    0.9281421774   -2.0658608669
H        4.5122690949    1.7250098295   -2.2706254330
H        5.3177540116   -2.8372086252   -4.0689031653
25   
torsion grid (-90,)
C        3.4144089273    0.8853477010   -5.2854779959
C        3.7841255073    0.6669894296   -3.9861616093
C        4.6103709508   -1.1967455869   -4.8637468257
C        2.8250751103    2.8449416664   -2.9970677582
C        2.0334895411    4.7749867097   -1.8822091009
C        6.3496195315   -2.7844202297   -7.3886429245
C        3.5714009464    1.5444120034   -2.7835532205
N        4.4687085604   -0.5171830760   -3.7623178340
N        5.2024360525   -2.4749491945   -4.9147374474
O        2.3707572921    3.2688386478   -4.0429209982
O        7.5511605434   -1.3802641060   -5.4720354369
O        7.2819927029   -3.8928003451   -5.1516756387
O        2.7231451018    3.5074272423   -1.8222476290
S        3.8933864512   -0.4580783949   -6.2788017509
S        6.7821063714   -2.6113543205   -5.6512951273
H        2.9041534847    1.7421853078   -5.6985235319
H        2.0483512502    5.1603810536   -0.8631852938
H        1.0067093243    4.6330616516   -2.2267989499
H        2.5507855594    5.4570063490   -2.5607246611
H        7.2874566587   -2.9945020002   -7.9063048954
H        5.6535849406   -3.6169040587   -7.4863244497
H        5.9218411886   -1.8489665960   -7.7481205500
H        3.0410850467    0.9771308265   -2.0102962808
H        4.5421379522    1.7857565104   -2.3358775764
H        5.3271704449   -2.8060073949   -3.9537648459
25   
torsion grid (-75,)
C        3.2996159278    0.7436473845   -5.2576025121
C        3.7731027354    0.5934854080   -3.9819746110
C        4.5618895287   -1.2989316219   -4.8344870037
C        2.8597378369    2.8048405538   -3.0250748908
C        2.1190385727    4.7731870044   -1.9428538729
C        6.3542417092   -2.5659117513   -7.3564290607
C        3.6363858818    1.5228350460   -2.8076642382
N        4.4919469226   -0.5693879425   -3.7581180561
N        5.1607813497   -2.5787865165   -4.8690782914
O        2.3295767215    3.1770010171   -4.0549023269
O        7.5972681295   -1.5760678922   -5.2088387686
O        7.1579191576   -4.0744294264   -5.3135674472
O        2.8290006368    3.5171113440   -1.8759883900
S        3.7222150069   -0.6387488664   -6.2213791918
S        6.7491260209   -2.7004263229   -5.6065208667
H        2.7427036291    1.5725302525   -5.6675964260
H        2.1972052330    5.2025911649   -0.9445546986
H        1.0734934886    4.6048303279   -2.2104609052
H        2.5797824333    5.4307300705   -2.6834348395
H        7.2769939786   -2.8295363335   -7.8766592556
H        5.5635286315   -3.2797921928   -7.5861643829
H        6.0654395262   -1.5422988347   -7.5902056722
H        3.1703661932    0.9862681664   -1.9734884603
H        4.6336774974    1.7932797805   -2.4427000505
H        5.3222830912   -2.8467988297   -3.8925686184
25   
torsion grid (-60,)
C        5.1513742670    1.5551935604   -4.0727109499
C        4.1046481969    0.7237653500   -4.3634090002
C        5.7325415301   -0.5189938464   -5.2224542919
C        2.2361934065    2.1836209206   -3.3512909979
C        0.3830933703    3.3132327899   -2.4108441803
C        4.5011340581   -3.5236744855   -5.2357429582
C        2.6402633350    0.9183637446   -4.0802556463
N        4.4469913711   -0.4446015478   -5.0256415553
N        6.3605261807   -1.5908942258   -5.8915062108
O        2.9556311665    3.1125884716   -3.0378501124
O        6.9700010591   -4.0578619833   -6.0415223832
O        6.6473529134   -3.0665897267   -3.7113297100
O        0.9092371152    2.1520567277   -3.0904805378
S        6.6455862288    0.8435131997   -4.6010284013
S        6.2590851531   -3.1719096021   -5.1198662568
H        5.1197947226    2.5258131789   -3.6017095500
H       -0.6817618454    3.1181269091   -2.2877972917
H        0.5446580732    4.2107935517   -3.0120143051
H        0.8680586454    3.4369563480   -1.4400369633
H        4.3960898787   -4.5441822644   -4.8619540685
H        3.9486966406   -2.8088208396   -4.6309117792
H        4.2168984046   -3.4579139511   -6.2853607701
H        2.0810447920    0.8886507828   -5.0229238070
H        2.2644577086    0.0654739850   -3.5044589974
H        7.3647367143   -1.4109416784   -5.9593203551
25   
torsion grid (-45,)
C        5.1571029595    1.6253673747   -4.1857144572
C        4.1353651136    0.7300403598   -4.3364605872
C        5.7619050867   -0.5115470318   -5.1973435261
C        2.2672370637    2.1915395443   -3.3271968980
C        0.4260257661    3.3181614459   -2.3604554289
C        4.5324282489   -3.5922991229   -5.4862793052
C        2.6862127818    0.8829028018   -3.9652902462
N        4.4896337408   -0.4758380901   -4.9229737361
N        6.3925553934   -1.6112670510   -5.8052997083
O        2.9565137070    3.1777749176   -3.1507849907
O        7.1475595612   -4.0233614972   -5.7734469391
O        6.3056293739   -3.0366821547   -3.5759070862
O        0.9639053121    2.1244413821   -2.9706374680
S        6.6491776540    0.9344993208   -4.7555185764
S        6.2176404120   -3.1719569423   -5.0298646963
H        5.1113487738    2.6302120690   -3.7946202820
H       -0.6163795138    3.0871210246   -2.1432477898
H        0.4992674535    4.1629418134   -3.0490645364
H        0.9691553904    3.5529452615   -1.4423708677
H        4.3453666926   -4.5749204328   -5.0488885853
H        3.8688252571   -2.8313367849   -5.0785538841
H        4.4827310316   -3.6291342066   -6.5741908302
H        2.0650946183    0.7378569793   -4.8571722645
H        2.3984882629    0.0717270658   -3.2874135564
H        7.3966960915   -1.4666726590   -5.9187099783
25   
torsion grid (-30,)
C        5.0583732507    1.6454954236   -4.1945551510
C        4.0352924536    0.7468621784   -4.3175202500
C        5.6601239463   -0.5203437563   -5.1404534622
C        2.1743630130    2.2316726668   -3.3298177752
C        0.3538738716    3.3634124105   -2.3303291057
C        4.4882797986   -3.6901616796   -5.4931717960
C        2.5862429620    0.9130870117   -3.9514410648
N        4.3871198170   -0.4755359246   -4.8691998381
N        6.2782463265   -1.6500878934   -5.6908940612
O        2.8557096924    3.2316809089   -3.2080536597
O        7.1499865848   -4.0011681701   -5.4732335153
O        6.0054725138   -2.9832164812   -3.4332176105
O        0.8861836528    2.1583527829   -2.9225184581
S        6.5510990448    0.9341164929   -4.7379209259
S        6.0955113442   -3.1769589740   -4.8788789708
H        5.0124407958    2.6638692266   -3.8400262585
H       -0.6764566110    3.1255686488   -2.0675215679
H        0.3896352018    4.1870461846   -3.0470116251
H        0.9267568232    3.6342979972   -1.4407186441
H        4.2659800460   -4.6430497339   -5.0092268698
H        3.7696291739   -2.9196820154   -5.2139868109
H        4.5616394872   -3.8021862938   -6.5745542585
H        1.9665372149    0.7653264731   -4.8442699557
H        2.2917241094    0.1094901570   -3.2681420919
H        7.2612339488   -1.5407418843   -5.9352239850
25   
torsion grid (-15,)
C        5.0518656728    1.6667015336   -4.2151166332
C        4.0310959037    0.7610356555   -4.3008740336
C        5.6516422940   -0.5196004157   -5.1110125770
C        2.1727292736    2.2574105181   -3.3245084714
C        0.3568185946    3.3982130036   -2.3274255527
C        4.5290229989   -3.7537523917   -5.5564226124
C        2.5858417028    0.9272242190   -3.9197555791
N        4.3814211499   -0.4731841870   -4.8266411895
N        6.2682134864   -1.6632729098   -5.6185042592
O        2.8473617684    3.2650500671   -3.2312319867
O        7.1954478974   -3.9739148187   -5.3497153414
O        5.8708776290   -2.9921519401   -3.4031359075
O        0.8893306274    2.1848840561   -2.9019187747
S        6.5428894055    0.9470864887   -4.7536211639
S        6.0732205479   -3.1858989467   -4.8358780889
H        5.0047389972    2.6949093594   -3.8903958379
H       -0.6690947506    3.1598735617   -2.0482457694
H        0.3797444670    4.2080494292   -3.0601929955
H        0.9380906243    3.6895684137   -1.4497703420
H        4.3001489867   -4.7126493908   -5.0876054338
H        3.7706984399   -3.0051085213   -5.3258824593
H        4.6753164836   -3.8637875906   -6.6307517300
H        1.9545347137    0.7523415914   -4.7994452486
H        2.3072704522    0.1385991529   -3.2126717893
H        7.1968561014   -1.5851081651   -6.0241853048
25   
torsion grid (0,)
C        5.0378320414    1.6902090405   -4.2433491264
C        4.0397330441    0.7563888975   -4.2666421419
C        5.6776350500   -0.5220107068   -5.0442930146
C        2.1686863861    2.2464826700   -3.3071399758
C        0.3547778121    3.3810707683   -2.2991761893
C        4.5429202561   -3.7357910430   -5.6013468735
C        2.5975354556    0.9064653167   -3.8680349363
N        4.4112007086   -0.4928743419   -4.7410607830
N        6.3255719886   -1.6680244237   -5.4933385451
O        2.8227475138    3.2711859986   -3.2697214583
O        7.1951606600   -3.9983394850   -5.3273596204
O        5.8221007937   -3.0743972020   -3.3821330598
O        0.8994890677    2.1603302758   -2.8458263290
S        6.5381563545    0.9821800926   -4.7727706108
S        6.0715532111   -3.2140097609   -4.8123040220
H        4.9693787939    2.7313938156   -3.9671457955
H       -0.6568963163    3.1296396515   -1.9820999462
H        0.3378856394    4.1644984940   -3.0602727319
H        0.9535466629    3.7167005094   -1.4495491989
H        4.2896865871   -4.7111355894   -5.1814407085
H        3.7853390324   -2.9892063016   -5.3617180225
H        4.7184757959   -3.8052480496   -6.6749846370
H        1.9557208221    0.6939633013   -4.7318836489
H        2.3455319172    0.1341685743   -3.1337519087
H        7.1515478216   -1.6110242116   -6.0795334098
25   
torsion grid (15,)
C        4.3731759975    1.4864270507   -5.0004955199
C        3.5604644304    0.6967084928   -4.2376030556
C        5.2798718555   -0.6854589843   -4.4092838806
C        2.2739500788    1.3618260797   -2.1904353261
C        0.9519462194    1.6316243607   -0.2496617334
C        7.6193214257   -0.8033438498   -2.2584058687
C        2.2199967420    1.0748010696   -3.6867185087
N        4.0885549918   -0.5376779083   -3.9016730858
N        6.0259352197   -1.8536155660   -4.2609411042
O        3.2751458951    1.6132703254   -1.5519667542
O        7.8880285062   -3.2329224274   -3.3151776061
O        8.4434441172   -1.1758143950   -4.7466550116
O        1.0295168462    1.3305493834   -1.6601750535
S        5.8628956999    0.6661999713   -5.3687747329
S        7.6461308079   -1.8519893303   -3.7282144900
H        4.2032214650    2.5024956042   -5.3322910070
H       -0.1058526034    1.5648792391    0.0034008791
H        1.3338870364    2.6361648204   -0.0533940970
H        1.5331897317    0.9067630741    0.3246350156
H        8.6473477702   -0.7592716803   -1.8947077957
H        7.2699594618    0.1913573270   -2.5357085387
H        6.9633548897   -1.2636174623   -1.5193920339
H        1.8382284897    1.9751078060   -4.1788346084
H        1.4892277105    0.2805820923   -3.8629636617
H        5.5147252473   -2.6827184923   -3.9667768108
25   
torsion grid (30,)
C        4.3536516180    1.5044646433   -5.1680220074
C        3.6019668148    0.7186688760   -4.3383653923
C        5.3389223118   -0.6307705886   -4.5796973737
C        2.4389568837    1.3714779651   -2.2184617683
C        1.2395056350    1.6327525612   -0.1984835872
C        7.3214230939   -0.7567375830   -2.1435525800
C        2.2943012818    1.0898905948   -3.7098644236
N        4.1740692248   -0.4956642435   -4.0075515924
N        6.1319231602   -1.7771680014   -4.4429196012
O        3.4779519764    1.6234629400   -1.6429676552
O        8.0315864306   -3.0230216779   -3.3564483114
O        8.4850956449   -0.7855091649   -4.5254728231
O        1.2307002849    1.3348095563   -1.6119335021
S        5.8387467402    0.7088033935   -5.5910998966
S        7.6651008108   -1.6457899161   -3.6783952497
H        4.1422657220    2.5080589659   -5.5139772553
H        0.1991170705    1.5656568809    0.1184069570
H        1.6332076801    2.6366842978   -0.0238104715
H        1.8543573877    0.9062648009    0.3374824699
H        8.2823605263   -0.6232679935   -1.6438398081
H        6.8748330304    0.2089012185   -2.3820442504
H        6.6477627929   -1.3619855473   -1.5365864356
H        1.8837652947    1.9920790325   -4.1746092395
H        1.5542789305    0.2961108399   -3.8449394996
H        5.6190997106   -2.5828808981   -4.0868509671
25   
torsion grid (45,)
C        4.2721348267    1.4628576300   -5.2172770866
C        3.5874006300    0.6580895580   -4.3459665890
C        5.3785141072   -0.6103261340   -4.6286692797
C        2.5044573805    1.2962449045   -2.1812293307
C        1.3764138179    1.7512466684   -0.1531936169
C        6.9948200630   -0.8740925568   -1.9202421360
C        2.2980175981    0.9879253166   -3.6604774998
N        4.2255124941   -0.5219927412   -4.0210059812
N        6.2454304707   -1.7079591577   -4.4829100363
O        3.5758972647    1.4169701181   -1.6223519271
O        8.2347206599   -2.7766788963   -3.3305673441
O        8.3815136668   -0.3477848940   -4.1238453649
O        1.3105959735    1.4365183317   -1.5615837457
S        5.7786871958    0.7325158508   -5.6707827078
S        7.6514573681   -1.4487612646   -3.5032088056
H        3.9992517389    2.4473017543   -5.5753277804
H        0.3402781343    1.8250319795    0.1758782110
H        1.8993208345    2.6979136255    0.0006337373
H        1.8981749436    0.9588736730    0.3881080387
H        7.8589606962   -0.6150195655   -1.3059637626
H        6.3614615226   -0.0021332774   -2.0874144399
H        6.4290352034   -1.6881771747   -1.4662386332
H        1.8167719995    1.8563182486   -4.1204104069
H        1.5897784133    0.1571014689   -3.7375083765
H        5.7362844376   -2.5180549012   -4.1263772609
25   
torsion grid (60,)
C        4.5783618786    1.1658598361   -5.3304276153
C        3.8982435412    0.4233259834   -4.4013936049
C        5.6621589502   -0.8900453870   -4.6507620207
C        2.8352811977    1.1197842917   -2.2410708699
C        1.7166630856    1.6649599267   -0.2300569349
C        7.1243145102   -1.3529311717   -1.8009432296
C        2.6222809885    0.8069712326   -3.7184261563
N        4.5225344237   -0.7490679425   -4.0274591862
N        6.5108856568   -2.0013778614   -4.4568273785
O        3.9051251098    1.1783112965   -1.6695272447
O        8.5957246388   -2.9694745323   -3.3536281038
O        8.4955941291   -0.4789715601   -3.9025019520
O        1.6459901990    1.3413385712   -1.6361664951
S        6.0627723778    0.3843012014   -5.7700758422
S        7.8711603212   -1.7036315729   -3.4090926278
H        4.3132420851    2.1317954266   -5.7408943225
H        0.6842337168    1.8127866654    0.0854679352
H        2.3015297631    2.5749745937   -0.0783947039
H        2.1763605299    0.8441480219    0.3250546214
H        7.9403914274   -1.0434333919   -1.1455168142
H        6.3928933260   -0.5513141700   -1.9167706330
H        6.6576400654   -2.2655962175   -1.4282844084
H        2.1727200341    1.6869573313   -4.1877959176
H        1.8836029008    0.0018496014   -3.7881858311
H        5.9480329470   -2.7493217945   -4.0451550944
25   
torsion grid (75,)
C        4.5201620694    1.1626725436   -5.4052571306
C        3.8806297719    0.4425382965   -4.4306258568
C        5.6558972175   -0.8532465626   -4.6945058887
C        2.8213707958    1.1556956702   -2.2672858327
C        1.7013978947    1.7355030537   -0.2667447750
C        7.1621216078   -1.5287815268   -1.8049570599
C        2.6072843921    0.8199118379   -3.7390214105
N        4.5343203326   -0.7078617703   -4.0395766564
N        6.5171482680   -1.9573542546   -4.4927132241
O        3.8898522459    1.2172933210   -1.6946900020
O        8.7816939099   -2.7479333975   -3.5737045660
O        8.3331564690   -0.2572988454   -3.8241338180
O        1.6310217496    1.3919786395   -1.6678486363
S        6.0005965638    0.3864772416   -5.8672558978
S        7.8890427220   -1.6001162500   -3.4576226760
H        4.2257548784    2.1081046815   -5.8425514608
H        0.6693622867    1.8934616521    0.0452795508
H        2.2909732387    2.6444378182   -0.1271494196
H        2.1559242723    0.9205492782    0.3012223372
H        7.9544962649   -1.1916418737   -1.1342643106
H        6.3368451830   -0.8142550976   -1.8227331808
H        6.8257683015   -2.5285619846   -1.5263909793
H        2.1409760056    1.6856335786   -4.2182863306
H        1.8792216733    0.0035676598   -3.7922487797
H        5.9427620244   -2.6556593702   -4.0124411581
25   
torsion grid (90,)
C        4.4794896042    1.1637110221   -5.3676165439
C        3.8490318863    0.4583935094   -4.3771007355
C        5.6414488328   -0.8192281568   -4.6085612865
C        2.7309703786    1.2482447056   -2.2635662196
C        1.5508835867    1.8789366426   -0.3136734219
C        7.4601647542   -1.8379319441   -1.7945039950
C        2.5558577230    0.8271005992   -3.7178743991
N        4.5194938191   -0.6722572035   -3.9550623197
N        6.4900426788   -1.9318904218   -4.4046104415
O        3.7849878069    1.3977089990   -1.6821593079
O        8.9386691277   -2.5899774873   -3.9093757205
O        8.2477142041   -0.1581817207   -3.7024790147
O        1.5193001158    1.4525778388   -1.6928738129
S        5.9698469757    0.3953817436   -5.8121841345
S        7.9666916141   -1.5795291556   -3.5091199532
H        4.1730329688    2.0938813400   -5.8285492731
H        0.5075198345    2.0004164787   -0.0234808946
H        2.0906955979    2.8240200633   -0.2197182568
H        2.0384583987    1.1231558385    0.3063867576
H        8.3194198171   -1.5741829471   -1.1752203407
H        6.6160108214   -1.1776173706   -1.5876327796
H        7.2016987238   -2.8889541764   -1.6550757749
H        2.0683021942    1.6504646834   -4.2482384380
H        1.8566906200   -0.0153426413   -3.7403896511
H        5.9261655613   -2.5719866369   -3.8384621483
25   
torsion grid (105,)
C        4.3748122452    1.1644336401   -5.3217118391
C        3.7159603175    0.5174324402   -4.3116394613
C        5.5262172777   -0.7535641443   -4.3928149703
C        2.4931211823    1.4597225672   -2.3219902095
C        1.2483309456    1.9819902637   -0.3816601520
C        7.7031551929   -2.1565106377   -1.7141972997
C        2.3869722238    0.9002061187   -3.7352801859
N        4.3826164131   -0.5737991002   -3.7882822155
N        6.3593997847   -1.8538876953   -4.1098154642
O        3.4955266977    1.9063740153   -1.8063094729
O        8.9123084772   -2.3084391612   -4.0911881829
O        8.0657193820   -0.0493097538   -3.3136790344
O        1.2829269641    1.4235362601   -1.7124352878
S        5.8853174887    0.3823322230   -5.6661434165
S        7.9244115879   -1.5025698026   -3.3829003614
H        4.0805486306    2.0635573691   -5.8473460815
H        0.2146562852    1.8817415623   -0.0511947413
H        1.5476373861    3.0325476403   -0.4012733063
H        1.9203957826    1.4298298281    0.2792723205
H        8.6513098152   -1.9959962668   -1.1978063490
H        6.8998569264   -1.6020656594   -1.2271319160
H        7.4892299818   -3.2251336692   -1.7757595645
H        1.9068982817    1.6660238005   -4.3530380529
H        1.7115432590    0.0399408301   -3.7173288915
H        5.8220960840   -2.4545328974   -3.4814526424
25   
torsion grid (120,)
C        4.7572474672    1.6670010426   -4.7248846876
C        3.9269853463    0.7952300127   -4.0749477978
C        5.5865141951   -0.6001371126   -4.5192840215
C        1.4375202918    0.4965374229   -4.3190100691
C       -0.8619148186   -0.0487488048   -4.2579300117
C        5.7991171457   -4.1288619278   -5.8032822784
C        2.5746598867    1.1145552165   -3.5144663523
N        4.4080093837   -0.4961968710   -3.9668943305
N        6.3377753178   -1.7893999855   -4.4575123931
O        1.5059852499    0.1091250353   -5.4659329971
O        6.1245700735   -1.8058713565   -7.0655152120
O        8.1472959597   -2.8920626004   -5.9606072664
O        0.3025249599    0.4679413374   -3.5786341163
S        6.2224252429    0.8704454410   -5.2083980751
S        6.7215975873   -2.5853922991   -5.9828129392
H        4.5802338430    2.7051637925   -4.9740638379
H       -1.6714898783    0.0079533906   -3.5305247480
H       -0.6927498450   -1.0824876914   -4.5679391937
H       -1.0898616964    0.5571249062   -5.1380210304
H        6.0300691415   -4.7219195701   -6.6900510954
H        6.1451939510   -4.6492607027   -4.9083688102
H        4.7338702595   -3.8981646727   -5.7610502062
H        2.4947570119    0.7695911916   -2.4796713550
H        2.4107824677    2.1970152584   -3.5010221872
H        5.8064822288   -2.4309591057   -3.8661020847
25   
torsion grid (135,)
C        4.6673584098    1.7835765967   -4.7874376832
C        3.8907782478    0.8684793360   -4.1289240480
C        5.6221013731   -0.4322502501   -4.5882566775
C        1.4320907272    0.3532102675   -4.3049381463
C       -0.8462340649   -0.2721504208   -4.2146240062
C        5.3162775384   -3.6735978402   -5.9912692546
C        2.5256561349    1.1116646548   -3.5624727056
N        4.4463926918   -0.3915576339   -4.0200451013
N        6.4325392561   -1.5885047737   -4.5491091952
O        1.5437979250   -0.1851629056   -5.3860420234
O        6.2680245649   -1.4958119820   -7.1483259103
O        7.9207342350   -3.1041279652   -6.0314492357
O        0.2802337720    0.3823917025   -3.5920990092
S        6.1651870862    1.0661235582   -5.2914526659
S        6.6279954311   -2.4323766815   -6.0856906830
H        4.4327665374    2.8114333610   -5.0321867101
H       -1.6755625266   -0.1471756602   -3.5187854438
H       -0.6301924043   -1.3314465134   -4.3714990031
H       -1.0743668109    0.1942639016   -5.1758095909
H        5.3403515348   -4.2195973301   -6.9361678866
H        5.5247798525   -4.3503194155   -5.1608501745
H        4.3632768329   -3.1560750324   -5.8696191451
H        2.4862740419    0.8226588709   -2.5076878645
H        2.2739426333    2.1760322813   -3.6054577016
H        5.9454428785   -2.2178745668   -3.9058974863
25   
torsion grid (150,)
C        4.8306735516    1.6990378173   -4.8486413563
C        4.0614919220    0.7952169579   -4.1642037899
C        5.8281593383   -0.4842174102   -4.5396640858
C        1.6332025365    0.1764859869   -4.3770669740
C       -0.6578195982   -0.4094153697   -4.4038636401
C        5.1156525615   -3.4762574240   -5.8864633954
C        2.6730770423    1.0219052088   -3.6507257428
N        4.6435924316   -0.4437459212   -3.9893370112
N        6.6507376790   -1.6326581878   -4.4781453724
O        1.8319732182   -0.5288297002   -5.3443232373
O        6.5794797447   -1.6194911316   -7.0619259088
O        7.7869945482   -3.5138168984   -5.8194248662
O        0.4215902980    0.3298408441   -3.7923896413
S        6.3499387894    0.9935034477   -5.2988887435
S        6.6812597474   -2.5737002186   -5.9604685955
H        4.5778773640    2.7105367721   -5.1395949728
H       -1.5435018345   -0.1686645731   -3.8164175465
H       -0.4511550530   -1.4815115341   -4.3689223335
H       -0.7883623455   -0.1016047921   -5.4438428013
H        5.0162530625   -4.0015291536   -6.8381295848
H        5.1575277301   -4.1893727810   -5.0617291815
H        4.3082347775   -2.7530288396   -5.7568062579
H        2.6104871525    0.7850902841   -2.5833802880
H        2.3840841492    2.0719003664   -3.7544117042
H        6.2242291815   -2.2179428095   -3.7546266083
25   
torsion grid (165,)
C        4.8059351203    1.6436337094   -4.9409220460
C        4.0756930063    0.7566933120   -4.1947836285
C        5.8382682952   -0.5197386686   -4.5987477269
C        1.6573064367    0.1112296154   -4.3634422589
C       -0.6283568209   -0.4959580797   -4.3679010955
C        4.9824039935   -3.3161335594   -6.0296078313
C        2.6958526072    0.9750662151   -3.6562576026
N        4.6775150827   -0.4699024152   -4.0007257673
N        6.6724345955   -1.6574517435   -4.5517551501
O        1.8575779232   -0.6088674570   -5.3201595983
O        6.7773218262   -1.7031503762   -7.1169338164
O        7.6095103796   -3.7109220530   -5.7503343836
O        0.4478663807    0.2644975499   -3.7764262805
S        6.3120720218    0.9364737180   -5.4307195716
S        6.6570095508   -2.6337150580   -5.9978527006
H        4.5278953857    2.6400938395   -5.2595479422
H       -1.5130528084   -0.2511073556   -3.7807510289
H       -0.4120559905   -1.5652603155   -4.3126129728
H       -0.7665377332   -0.2097375460   -5.4130003320
H        4.8824332689   -3.8440028983   -6.9797416505
H        4.8723346521   -4.0088183368   -5.1942031187
H        4.2661867849   -2.4952575924   -5.9642508262
H        2.6536013260    0.7420689230   -2.5872196327
H        2.3925489261    2.0208826825   -3.7610524972
H        6.3413438931   -2.2371896355   -3.7769443662
25   
torsion grid (180,)
C        4.7612242604    1.5921428988   -5.0141561290
C        4.0568695697    0.7424827660   -4.2030916102
C        5.8131411726   -0.5472697215   -4.5882656735
C        1.6399878001    0.1018603476   -4.3443452588
C       -0.6402330445   -0.5241578804   -4.3153955929
C        4.9616952466   -3.1906363792   -6.1460985529
C        2.6832306618    0.9748103368   -3.6549144609
N        4.6686230005   -0.4714192752   -3.9632615078
N        6.6540012630   -1.6743110384   -4.5181010035
O        1.8322656362   -0.6147734928   -5.3056629473
O        7.0499250851   -1.8215714728   -7.0406402794
O        7.4748523640   -3.8515168019   -5.5325877458
O        0.4389790770    0.2438242579   -3.7388919156
S        6.2580768694    0.8678068365   -5.5078131875
S        6.6841657611   -2.6880468624   -5.9240542977
H        4.4668511061    2.5678233617   -5.3790901642
H       -1.5175667218   -0.2877976565   -3.7139446497
H       -0.4142144673   -1.5916911349   -4.2659103798
H       -0.7969175694   -0.2366212353   -5.3575196416
H        4.9237105942   -3.7503766433   -7.0822926855
H        4.6754065866   -3.8244295752   -5.3061710209
H        4.3319113460   -2.3016103515   -6.1996918322
H        2.6486420729    0.7587638025   -2.5823703638
H        2.3809459643    2.0192878006   -3.7757740590
H        6.4010890162   -2.2411183001   -3.7068634543
