19   
torsion grid (-165,)
C        1.1568710309   -0.9791064302   -2.1471675377
C        0.6628000183    0.2388435520   -2.7297791954
C       -0.1393085519    0.0131793225   -3.8277155593
C        0.7235517900   -2.0905832589   -2.8147146408
C        2.0820280721    1.8755658155   -1.2437867315
C        2.2092346693    2.3531981498   -2.6718328726
C        0.9579318698    1.6104554731   -2.2203790302
C       -0.8428636188    1.0309740150   -4.6785985624
S       -0.3004941735   -1.6939507203   -4.1609335065
Br       1.1273016456   -3.8955071130   -2.4015060494
H        1.7905866231   -1.0259956957   -1.2695252284
H        2.7060229381    1.0414048810   -0.9391965623
H        1.9107024256    2.6128168710   -0.4652946205
H        2.1271847849    3.4172463278   -2.8747103611
H        2.8913677960    1.8141483813   -3.3224859138
H        0.0797221873    2.2387767068   -2.0906286887
H       -0.9641424206    0.6853447191   -5.7094436222
H       -1.8410057281    1.2648195518   -4.2880807459
H       -0.2658253243    1.9598880397   -4.7027631963
19   
torsion grid (-150,)
C        0.6556541363   -0.9285817702   -1.9183344045
C        0.3855435560    0.3047919180   -2.6067252317
C       -0.3600656524    0.1255817427   -3.7515372612
C        0.1156881239   -2.0092067208   -2.5568493217
C        2.1177728391    1.8016327158   -1.3405659513
C        2.0345448792    2.3353136058   -2.7523085606
C        0.8328739596    1.6460261355   -2.1235466069
C       -0.8521260457    1.1694434930   -4.7111856126
S       -0.7377289872   -1.5621133304   -4.0042714187
Br       0.2271557367   -3.8234325894   -2.0205684465
H        1.2165555421   -0.9989833317   -0.9934727554
H        2.7240511061    0.9152401120   -1.1801469329
H        2.1309640098    2.5118104355   -0.5192954615
H        1.9885751173    3.4107391309   -2.8986207200
H        2.5668289742    1.7902769539   -3.5262292367
H        0.0260353759    2.3136569173   -1.8273835266
H       -0.7634252399    0.8407830845   -5.7516432346
H       -1.9043330317    1.4213177693   -4.5318701257
H       -0.2634331523    2.0829176825   -4.5945054031
19   
torsion grid (-135,)
C        0.5141454189   -0.9194119282   -1.8125385977
C        0.3328024002    0.3083404163   -2.5405828588
C       -0.3283038965    0.1259743181   -3.7354802148
C       -0.0075508296   -1.9977302535   -2.4682571878
C        2.1927150268    1.7732001089   -1.4478301244
C        1.8732173270    2.4099692440   -2.7811869411
C        0.8030479127    1.6333864520   -2.0335805278
C       -0.7436540945    1.1594104942   -4.7417895817
S       -0.7354028353   -1.5568976063   -3.9851641843
Br       0.0220058026   -3.8050507035   -1.8988273926
H        1.0139703553   -0.9835407924   -0.8525083603
H        2.8300333103    0.8938104459   -1.4552075849
H        2.3211955547    2.4191899294   -0.5844186126
H        1.7820174766    3.4913373975   -2.8293787340
H        2.2940012701    1.9470543440   -3.6689117114
H        0.0351702658    2.2428346546   -1.5599971242
H       -0.6125237011    0.8043322046   -5.7689675705
H       -1.7973422740    1.4372935922   -4.6191958011
H       -0.1440047086    2.0635483889   -4.6142830574
19   
torsion grid (-120,)
C        0.6564636451   -1.0286088681   -1.9872391407
C        0.4406638132    0.2445708899   -2.6247877803
C       -0.1737442827    0.1279607488   -3.8518890569
C        0.2095898050   -2.0741261545   -2.7419378038
C        2.3303663439    1.7496594226   -1.6555528122
C        1.6849912368    2.5451492930   -2.7652924579
C        0.8661567402    1.5300379522   -1.9916025719
C       -0.5764377366    1.2051657700   -4.8187182795
S       -0.4903587816   -1.5486369013   -4.2454032547
Br       0.2994889167   -3.9171095502   -2.3096707206
H        1.1311028525   -1.1443686478   -1.0190583413
H        3.0279768033    0.9667165555   -1.9381174829
H        2.5706351501    2.2587237613   -0.7267001033
H        1.4849305375    3.5992369695   -2.5956469438
H        1.9612783364    2.2945958219   -3.7846704222
H        0.1598393736    1.9438873243   -1.2735837795
H        0.1234158310    1.2778788516   -5.6599980392
H       -1.5721791858    1.0190460961   -5.2335738291
H       -0.5982064783    2.1724712521   -4.3137228214
19   
torsion grid (-105,)
C       -0.1874774685   -0.5460335953   -1.3091613953
C       -0.0427360076    0.5280364636   -2.2596310197
C       -0.6187736280    0.2380096799   -3.4770523222
C       -0.8617761795   -1.6155514972   -1.8210636267
C        2.2343224846    1.7054272828   -1.7889438718
C        1.5947274321    2.4858748518   -2.9093120100
C        0.7179926458    1.7635256435   -1.9041711670
C       -0.7293330827    1.0795050846   -4.7188240475
S       -1.3447398419   -1.3570049684   -3.4709955345
Br      -1.2665291011   -3.2423803218   -0.9370021491
H        0.2082970939   -0.5122187641   -0.2999002144
H        2.7111321706    0.7629304116   -2.0412799875
H        2.7042325464    2.2496920398   -0.9747612133
H        1.6252395202    3.5708132740   -2.8680961804
H        1.6756123222    2.0720290729   -3.9081504318
H        0.2299193488    2.4018221746   -1.1695237639
H        0.0839981243    0.8752129732   -5.4256138794
H       -1.6719024936    0.8899820022   -5.2412401252
H       -0.6976201751    2.1402757507   -4.4634867297
19   
torsion grid (-90,)
C       -0.2137255736   -0.5826226116   -1.3169057609
C       -0.0153026831    0.4863574451   -2.2647205456
C       -0.5406058247    0.1932254178   -3.5051928233
C       -0.8767421260   -1.6484530215   -1.8502401139
C        2.2856261676    1.6905444807   -1.9729404549
C        1.4637026890    2.6209553308   -2.8271220048
C        0.7660336814    1.6902991436   -1.8536968582
C       -0.6048709414    1.0144130279   -4.7655358746
S       -1.2841305882   -1.3942468624   -3.5190230073
Br      -1.3416853728   -3.2618999440   -0.9712987539
H        0.1374008152   -0.5473384511   -0.2911284037
H        2.7357883783    0.8302130820   -2.4591013266
H        2.8612451876    2.1028741034   -1.1491251043
H        1.4682575871    3.6804522515   -2.5882751772
H        1.4150371925    2.4043506309   -3.8867163576
H        0.3865740916    2.1727836148   -0.9549518666
H        0.3204627073    0.9451873299   -5.3496238149
H       -1.4211788814    0.6769533179   -5.4107543505
H       -0.7828137002    2.0665984658   -4.5326584569
19   
torsion grid (-75,)
C       -0.2435517899   -0.6442688621   -1.3364968379
C        0.0290478389    0.4149770222   -2.2759284448
C       -0.4713085872    0.1412983588   -3.5323454352
C       -0.9337009988   -1.6834097749   -1.8893601742
C        2.3082690995    1.7081508256   -2.1863990798
C        1.3175008154    2.7235058895   -2.6985452884
C        0.8328234549    1.5869171627   -1.8201714075
C       -0.4548783386    0.9483359925   -4.8044122964
S       -1.2766325070   -1.4145099415   -3.5679955482
Br      -1.4945158154   -3.2723940519   -1.0221555044
H        0.0727539500   -0.6218391833   -0.2989803616
H        2.6919946990    0.9790305780   -2.8939536628
H        3.0076661512    2.0003282966   -1.4083616855
H        1.3250586566    3.7148924167   -2.2549396785
H        1.0869449034    2.7151826781   -3.7552899267
H        0.6039365097    1.8802365611   -0.7981385135
H        0.5577890977    1.0548870093   -5.2087298163
H       -1.0612441421    0.4695319276   -5.5783572088
H       -0.8650536280    1.9491802341   -4.6419478599
19   
torsion grid (-60,)
C       -0.2740895166   -0.7118654933   -1.3639885624
C        0.0904996379    0.3298098766   -2.2901291852
C       -0.3929607261    0.0908644156   -3.5610533623
C       -1.0122568424   -1.7054241501   -1.9401856238
C        2.2973460987    1.7638341856   -2.3876348859
C        1.1785756788    2.7638852487   -2.5543925319
C        0.9207570808    1.4708772630   -1.8050422998
C       -0.2820817858    0.8958673418   -4.8297804698
S       -1.2895737103   -1.4118494237   -3.6257481445
Br      -1.6969280089   -3.2562450822   -1.0935086164
H        0.0092628978   -0.7112725662   -0.3167846664
H        2.5913139508    1.1838260692   -3.2575124087
H        3.1064071314    1.9908300314   -1.6995927654
H        1.2125089822    3.6734112312   -1.9617213107
H        0.7502494311    2.8953277878   -3.5394480199
H        0.8626204553    1.5908347039   -0.7262534883
H        0.7527318279    1.1835521777   -5.0377659312
H       -0.6336584939    0.3201728717   -5.6906044055
H       -0.8863174923    1.8081651809   -4.7803551807
19   
torsion grid (-45,)
C       -0.3145156127   -0.7644009686   -1.4225777720
C        0.1434261857    0.2536698433   -2.3333001606
C       -0.3062640096    0.0410554625   -3.6218754987
C       -1.0935605287   -1.7101965612   -2.0247899101
C        2.2723885033    1.8179919012   -2.5321952148
C        1.0828808965    2.7413794425   -2.4273999022
C        1.0131214016    1.3518093319   -1.8180168307
C       -0.1366693812    0.8530404692   -4.8794215362
S       -1.2942434029   -1.4018592247   -3.7185086868
Br      -1.8916585125   -3.2210388218   -1.2059937630
H       -0.0651079479   -0.7833321986   -0.3670061344
H        2.4963880207    1.3688966810   -3.4942715158
H        3.1470793373    2.0284881762   -1.9237963389
H        1.1442891548    3.5816340272   -1.7419139245
H        0.5007523406    2.9374618775   -3.3201996460
H        1.0960857518    1.3359342272   -0.7347703362
H        0.8583688075    1.2973932085   -4.9444906636
H       -0.2693722140    0.2310740452   -5.7696320583
H       -0.8725675422    1.6638030766   -4.9358893379
19   
torsion grid (-30,)
C       -0.9986789754   -1.0215141945   -2.3101761907
C       -0.2466886148    0.0222784400   -2.9585191881
C       -0.5506081101    0.1261544342   -4.3019588151
C       -1.8389973101   -1.6826056425   -3.1592559378
C        1.9655803090    1.4792890587   -2.7149867397
C        0.8182691184    2.3503441806   -2.2607203151
C        0.7087056439    0.8382288044   -2.1526306257
C        0.0136206616    1.0118315268   -5.3819546587
S       -1.7518339334   -1.0579844529   -4.7737051377
Br      -3.0086423085   -3.1088216189   -2.7259877465
H       -0.9109713559   -1.2595863279   -1.2554672442
H        2.1514256786    1.3866199159   -3.7788255806
H        2.8605297242    1.4462981616   -2.1005255144
H        0.9294795670    2.9117973225   -1.3377082833
H        0.2140125147    2.8461238483   -3.0131673822
H        0.8189576097    0.4574636392   -1.1409234078
H        0.2537385305    2.0078533024   -5.0059238938
H        0.9270688102    0.5855286941   -5.8133942781
H       -0.7025522284    1.1407932514   -6.1989790729
19   
torsion grid (-15,)
C       -1.1509754094   -0.9274723872   -2.3599361261
C       -0.2820483101    0.0216536722   -3.0077579158
C       -0.5496981528    0.1373994605   -4.3574080935
C       -2.0475379790   -1.5021480325   -3.2143863446
C        1.9090668447    1.5336594929   -2.7437719903
C        0.7548879657    2.2660327463   -2.1054798725
C        0.7369561398    0.7446173187   -2.1914506266
C        0.1013662496    0.9731169009   -5.4287804282
S       -1.8691772601   -0.9106957763   -4.8336765952
Br      -3.3670217854   -2.7927917126   -2.7856391153
H       -1.1030453688   -1.1613127645   -1.3016669442
H        2.0355079024    1.6042566648   -3.8163426785
H        2.8425488117    1.4723585200   -2.1918631415
H        0.8994052830    2.7212593365   -1.1300684169
H        0.0682365811    2.7992517546   -2.7562275359
H        0.9433862488    0.2429995564   -1.2496544707
H        0.2165509831    2.0146829482   -5.1157207989
H        1.0910570654    0.5858576783   -5.6949025733
H       -0.5011603627    0.9779536547   -6.3415212098
19   
torsion grid (0,)
C       -1.2988612837   -0.7829554562   -2.4379015297
C       -0.3184984280    0.0421643110   -3.0983454394
C       -0.5607389485    0.1599100875   -4.4516299586
C       -2.2507906646   -1.2658733183   -3.2881375291
C        1.8205734604    1.6261770793   -2.7857182009
C        0.6958778221    2.1667277108   -1.9344266623
C        0.7497812416    0.6831994558   -2.2767247666
C        0.1926820534    0.8885661621   -5.5338567127
S       -1.9914252499   -0.7367429448   -4.9190211740
Br      -3.7169060418   -2.3824010058   -2.8461333682
H       -1.2861436313   -0.9944772184   -1.3739089576
H        1.8381203259    1.8993624702   -3.8321986904
H        2.8046370535    1.5367311496   -2.3349054355
H        0.9068910345    2.4657272233   -0.9117878181
H       -0.0728963040    2.7510708310   -2.4314583156
H        1.0728035897    0.0514447457   -1.4522891938
H        0.1799091019    1.9731732241   -5.3810390339
H        1.2358591277    0.5619697512   -5.5783825405
H       -0.2504117310    0.6970797899   -6.5151324150
19   
torsion grid (15,)
C       -1.3905670963   -0.6187007973   -2.4729444649
C       -0.3328293882    0.0911871449   -3.1489678279
C       -0.5537743784    0.1968081010   -4.5057857957
C       -2.3767615484   -1.0324752590   -3.3194683284
C        1.7223080888    1.7585700365   -2.8194994293
C        0.6848425352    2.0741032835   -1.7651309449
C        0.7829821691    0.6710445516   -2.3448449023
C        0.2854427702    0.8097191599   -5.5955143035
S       -2.0587269548   -0.5760980842   -4.9641253448
Br      -3.9478310496   -1.9889450916   -2.8628322695
H       -1.4053256741   -0.7966519806   -1.4029188174
H        1.5762355038    2.1936925071   -3.7998856323
H        2.7618261355    1.6869834356   -2.5133208607
H        1.0071669091    2.2269123579   -0.7392212934
H       -0.1700291517    2.6703169069   -2.0700250417
H        1.2411366914   -0.0521189810   -1.6722026535
H        0.1708140697    1.8991208531   -5.6389084435
H        1.3435516697    0.5842540703   -5.4433794167
H        0.0025623396    0.4151995889   -6.5756617893
19   
torsion grid (30,)
C       -1.6677051394   -0.1486412641   -2.6237211178
C       -0.4613975849    0.3249033138   -3.2552647073
C       -0.5839218316    0.4226105781   -4.6241443647
C       -2.6673043593   -0.3977667929   -3.5177070123
C        1.6798405063    1.8141086718   -2.8143979652
C        0.7324149791    2.0126043401   -1.6516502573
C        0.7222106591    0.7073192155   -2.4290020020
C        0.4251040294    0.8315648810   -5.6624638674
S       -2.1813082469   -0.0671659445   -5.1534277709
Br      -4.4159851691   -1.0192003883   -3.1333990639
H       -1.7729333348   -0.2808938836   -1.5522956749
H        1.4774207191    2.3839463091   -3.7139623084
H        2.7349228032    1.6673332865   -2.6028101776
H        1.1333606929    2.0018312023   -0.6423096099
H       -0.1085461630    2.6828292968   -1.8027418289
H        1.1804553056   -0.1290272949   -1.9028579026
H        0.3789699103    1.9058431130   -5.8779053670
H        1.4364790721    0.5964315227   -5.3255439764
H        0.2567317685    0.3020234904   -6.6049767357
19   
torsion grid (45,)
C       -2.0407840479    1.3667197783   -3.0108556186
C       -0.6823843007    1.1857840566   -3.4544669912
C       -0.5625973977    1.2151440095   -4.8262249017
C       -2.9129301110    1.5313590908   -4.0473573024
C        1.7429248700    1.7751724318   -2.6375823486
C        0.7893934897    2.1286657562   -1.5177624433
C        0.4425789532    1.0133061585   -2.4863031308
C        0.6632489405    1.0537426001   -5.6805819849
S       -2.1166431410    1.4702846269   -5.5924891720
Br      -4.7839993067    1.8105893470   -3.9339959495
H       -2.3362711572    1.3808040520   -1.9674676936
H        1.8236927379    2.4788216181   -3.4598433153
H        2.6677864450    1.2633444492   -2.3877732023
H        1.0586282551    1.8561340367   -0.5015241720
H        0.2322776958    3.0564090451   -1.6090622236
H        0.5383394539    0.0084014185   -2.0772386955
H        1.0513903862    2.0212174136   -6.0215185109
H        1.4522678997    0.5536165195   -5.1162052871
H        0.4528496478    0.4517579552   -6.5700872831
19   
torsion grid (60,)
C       -1.9988527072    1.2017842641   -2.9225367677
C       -0.6553563047    1.0710595115   -3.4226076285
C       -0.5982301061    1.0612992348   -4.7989656024
C       -2.9230779995    1.2893172922   -3.9233636258
C        1.6529504246    1.9749010300   -2.5752938887
C        0.7216303422    1.9361806784   -1.3840178986
C        0.5313909708    0.9539801914   -2.5213174745
C        0.5980469049    0.8959485546   -5.6905796400
S       -2.1942704109    1.2148314881   -5.5011565827
Br      -4.7974435247    1.4941875456   -3.7331577301
H       -2.2485964419    1.2352631895   -1.8679089335
H        1.5400366445    2.8031534999   -3.2684684460
H        2.6726450062    1.6233917709   -2.4463984806
H        1.1042879509    1.5584507467   -0.4405091929
H       -0.0030513946    2.7398555286   -1.2914727262
H        0.8452928121   -0.0667242297   -2.3084176343
H        0.6048897431    1.6294608197   -6.5038012069
H        1.5138536758    1.0221248279   -5.1097663647
H        0.6242158346   -0.1016521217   -6.1444680098
19   
torsion grid (75,)
C       -1.9117090212    1.9727728116   -3.0117649779
C       -0.6294148525    1.5105444714   -3.4701222492
C       -0.5549860355    1.4249526346   -4.8432336256
C       -2.7718072591    2.2320615115   -4.0413297147
C        1.7040121624    2.0364339149   -2.4103513047
C        0.7249226711    1.8841628232   -1.2691113113
C        0.4926110603    1.1289482599   -2.5597796617
C        0.5995907054    0.9544375434   -5.6788920046
S       -2.0549625152    1.9166881025   -5.5937207685
Br      -4.5506355699    2.8721539218   -3.9084809877
H       -2.1725934708    2.0999645019   -1.9673306209
H        1.6917867559    2.9721538782   -2.9613996214
H        2.6819206413    1.5725906740   -2.3174359781
H        1.0354291580    1.3183622153   -0.3958249930
H        0.0755607694    2.7272738482   -1.0530683066
H        0.7079685371    0.0627085578   -2.5218398624
H        0.6746140900    1.5079343789   -6.6199986638
H        1.5340262233    1.0921609979   -5.1284741602
H        0.5104734371   -0.1103013698   -5.9265837383
19   
torsion grid (90,)
C        2.4314938975   -0.5179581566   -1.4788001201
C        1.4372442518    0.2078245439   -2.2216284864
C        0.4155494226   -0.6018975635   -2.6689007281
C        2.1389467010   -1.8492592786   -1.3763063156
C        0.8434738501    2.6718923310   -1.5659561888
C        2.3469399413    2.6094991310   -1.6913324573
C        1.4914190280    1.6711728217   -2.5146391734
C       -0.7797480761   -0.2069124488   -3.4869827136
S        0.6567004149   -2.2626879283   -2.1834644324
Br       3.1600183551   -3.1740672534   -0.4853230677
H        3.3231142482   -0.0728551181   -1.0532884761
H        0.3962368463    2.2706094836   -0.6614033715
H        0.3198495338    3.5202967845   -1.9975245994
H        2.8558875382    3.4159928552   -2.2105445522
H        2.9018003924    2.1960566592   -0.8550604180
H        1.4120568135    1.9236102378   -3.5695834820
H       -1.6579687391   -0.8122819386   -3.2431943868
H       -1.0302956098    0.8403483813   -3.2959069935
H       -0.5895536954   -0.3168295142   -4.5617507943
19   
torsion grid (105,)
C        2.3155145727   -0.4432976499   -1.3023809842
C        1.3685472865    0.2351937216   -2.1462864841
C        0.4103563262   -0.6150347952   -2.6550216535
C        2.0551713444   -1.7802800502   -1.1927720798
C        0.9442665404    2.7026622342   -1.3844025893
C        2.3915993440    2.6358204372   -1.8104733037
C        1.3866399876    1.6968169399   -2.4413458807
C       -0.7325914967   -0.2868878474   -3.5732973112
S        0.6610943267   -2.2576099650   -2.1122047306
Br       3.0425987370   -3.0523611357   -0.1935340075
H        3.1562796388    0.0334971926   -0.8128386436
H        0.6907598900    2.3039856640   -0.4066879798
H        0.3453183514    3.5510963534   -1.7028906719
H        2.7839376042    3.4373212633   -2.4291236916
H        3.1073933696    2.2316373283   -1.1020792235
H        1.1035252478    1.9510346139   -3.4593581074
H       -1.5933097981   -0.9385755041   -3.3960786626
H       -1.0602811137    0.7440662283   -3.4136598187
H       -0.4496391508   -0.3921334951   -4.6279255264
19   
torsion grid (120,)
C        2.3636124208   -0.1175378734   -0.9551027403
C        1.4141368927    0.3479469969   -1.9303725616
C        0.5993631909   -0.6605180633   -2.3976025737
C        2.2510805320   -1.4580818639   -0.7145649427
C        0.9731245211    2.8526090738   -1.3351463406
C        2.3084022881    2.8191867280   -2.0401147128
C        1.2687586941    1.7646291050   -2.3608592176
C       -0.5067368321   -0.5676937129   -3.4126138153
S        0.9966920526   -2.1953293421   -1.6619931265
Br       3.2968953484   -2.4878439996    0.4843485244
H        3.0964444656    0.5076673850   -0.4581525856
H        0.9444144190    2.5464513123   -0.2936121022
H        0.2619769625    3.6286779606   -1.6031012539
H        2.5098799653    3.5694753764   -2.7987537406
H        3.1803758024    2.5210393919   -1.4668201777
H        0.7676932181    1.8883193250   -3.3166747543
H       -1.0615922931   -1.5063883347   -3.4904390663
H       -1.2215158165    0.2162429966   -3.1403890239
H       -0.1153523398   -0.3335218484   -4.4096744028
19   
torsion grid (135,)
C        2.2118500853   -0.6609861311   -2.2384795949
C        1.2645501953    0.2575200944   -2.8128514819
C        0.3077248033   -0.3782481497   -3.5734514658
C        1.9540588829   -1.9588546413   -2.5779827598
C        1.5306275244    2.2919930849   -1.1976018908
C        2.5769906107    2.4603599164   -2.2714762018
C        1.2863359607    1.7265523070   -2.5906139129
C       -0.8472287964    0.2303016476   -4.3213630979
S        0.5599501199   -2.1086885068   -3.6021440204
Br       2.9427788226   -3.4867435837   -2.0494784030
H        3.0431852029   -0.3747995600   -1.6038181779
H        1.7234817774    1.5760317652   -0.4040960963
H        0.9539519121    3.1607515566   -0.8937622219
H        2.7154742177    3.4455044385   -2.7071691624
H        3.4867597765    1.8720094377   -2.2009419809
H        0.5759294407    2.2811537153   -3.1959332420
H       -1.4439062224   -0.5326341140   -4.8282989112
H       -1.5150969036    0.7733288020   -3.6434415867
H       -0.4989719609    0.9345925248   -5.0853152130
19   
torsion grid (150,)
C        2.1681444134   -0.6542960612   -2.1088402007
C        1.2258200645    0.2457432926   -2.7193405875
C        0.3495446887   -0.4003883791   -3.5635905501
C        1.9828415352   -1.9499583098   -2.5000382322
C        1.6471033656    2.3038979158   -1.1579028471
C        2.5033739378    2.4990793261   -2.3837211336
C        1.2036706909    1.7130723113   -2.4861435627
C       -0.7648702429    0.1900576466   -4.3840908013
S        0.6644029014   -2.1200342832   -3.6170784596
Br       2.9903308878   -3.4564513370   -1.9462502910
H        2.9468011038   -0.3563166383   -1.4153929319
H        1.9928732269    1.6164858178   -0.3918410453
H        1.0917584104    3.1561004065   -0.7771630560
H        2.5380693570    3.4840391230   -2.8399761797
H        3.4281749961    1.9344449825   -2.4562141834
H        0.3848724059    2.2320953153   -2.9748644720
H       -1.2969126521   -0.5787923476   -4.9505425829
H       -1.5002310034    0.6960889691   -3.7485693973
H       -0.3820659780    0.9225244850   -5.1035633864
19   
torsion grid (165,)
C        2.0687477985   -0.7028965693   -2.0451122783
C        1.1609927658    0.2269955230   -2.6623720466
C        0.3441519549   -0.3743205329   -3.5953967570
C        1.9154938924   -1.9762904695   -2.5165568375
C        1.7778642557    2.2807523502   -1.1455462206
C        2.4098739339    2.5109059499   -2.4951280763
C        1.1309794695    1.6871379712   -2.3825090215
C       -0.7108758790    0.2620932597   -4.4582912043
S        0.6681828989   -2.0877085883   -3.7189120045
Br       2.8899038431   -3.5101387410   -1.9785595814
H        2.7986400628   -0.4432436103   -1.2868774413
H        2.2728879884    1.6070995476   -0.4533155037
H        1.2691238792    3.1127589460   -0.6676310411
H        2.3433057163    3.4999189374   -2.9392428710
H        3.3204016276    1.9670706837   -2.7289877950
H        0.2290508896    2.1889705371   -2.7200790490
H       -1.1979883066   -0.4719953111   -5.1055216279
H       -1.4921834615    0.7309858037   -3.8494325740
H       -0.2789819716    1.0357945231   -5.1028996236
19   
torsion grid (180,)
C        2.5576982649   -0.5140421394   -2.0336076535
C        1.5262897318    0.2626864356   -2.6676584158
C        0.8560428778   -0.4459366355   -3.6418547854
C        2.6394183131   -1.7830160022   -2.5343780972
C        1.9564989613    2.4567284748   -1.2804589768
C        2.1993900576    2.7880331818   -2.7326563954
C        1.2155251706    1.6857480820   -2.3520156556
C       -0.2784024273    0.0157266493   -4.5127479156
S        1.4701498295   -2.0760809987   -3.7842297711
Br       3.8448892913   -3.1413987576   -1.9931321375
H        3.2014863748   -0.1544880320   -1.2397384835
H        2.7475627036    1.9543604980   -0.7334117637
H        1.3816647217    3.1576185100   -0.6824986241
H        1.7980331942    3.7165356919   -3.1286644414
H        3.1397335850    2.4708361435   -3.1734466290
H        0.1676803669    1.9493598686   -2.4655266281
H       -0.3231819797   -0.5476282814   -5.4492242425
H       -1.2472120480   -0.0994594124   -4.0112548275
H       -0.1555706121    1.0720819719   -4.7689076965
