61
-1 1 C26H29N2O4
C                     5.536863500506     6.302921015665     3.820826416447
C                     4.209787266434     5.675937140045     3.467700780404
C                     3.098824332855     6.488547533325     3.211445668366
C                     1.837708233598     5.959985051946     2.936601412893
C                     1.666681117211     4.568947909268     2.920974106056
C                     2.771913897698     3.737075026303     3.161271392463
C                     4.039517349717     4.268378010621     3.423622842931
N                     5.162494098258     3.425031962466     3.682725690377
C                     4.858339860108     2.084857094858     4.173593344427
C                     6.137504537696     3.376973633390     2.589149434982
C                     0.371167567909     3.957464650169     2.646787342683
N                     0.061671391653     2.689158318520     2.634200508179
C                    -1.292542388600     2.636857681582     2.312015069878
C                    -1.755767264527     3.912038173367     2.146670549425
O                    -0.692466396253     4.770651402100     2.357517795824
C                    -3.064690709399     4.518409718197     1.783255364152
C                    -2.019715983487     1.331654939887     2.161038356291
C                    -2.539830473496     1.078205832343     0.745485385962
O                    -1.431215329864     1.064818252175    -0.134561192003
C                    -1.693149217178     1.002931982824    -1.494187354433
C                    -0.580969398269     1.152120521947    -2.334715396355
C                    -0.736156213993     1.095763127844    -3.723450316535
C                    -2.001873382093     0.892929794042    -4.281197153921
C                    -3.104136647621     0.740156830748    -3.429040008869
C                    -2.969280677453     0.794010205916    -2.038192004710
C                    -4.367362491748     0.550314098953    -4.245786715816
C                    -3.820898559176     0.161526554503    -5.640479663379
C                    -2.424973946365     0.825649520838    -5.738044833017
H                    -2.565204774753     1.846194764945    -6.119993571660
C                    -1.470524772116     0.122897073217    -6.700896097805
C                    -1.916381321723     0.190681879848    -8.205198764579
O                    -1.328661813040    -0.625174888617    -8.965231152686
O                    -2.786819692575     1.064661075960    -8.488213881318
H                     6.159471445726     6.476026660760     2.933834784475
H                     5.387657011692     7.273994000940     4.302504680688
H                     6.102684105722     5.654548067070     4.495638852398
H                     3.223299444264     7.568975296108     3.249915306384
H                     0.993243086770     6.614780322716     2.747335727680
H                     2.613902651530     2.665627998755     3.123144237936
H                     5.782163797599     1.632987451688     4.550495034256
H                     4.143444954545     2.143950229306     4.998038256846
H                     4.447309817429     1.411409967862     3.402128146184
H                     7.056388627092     2.895544738619     2.941408887308
H                     5.758080535275     2.811424273828     1.720872366736
H                     6.389072907099     4.382821620775     2.251660668008
H                    -3.321279832801     5.339632825130     2.461386291558
H                    -3.054783728833     4.914715637828     0.761039989142
H                    -3.853214686459     3.764838388037     1.843951778545
H                    -1.331205975358     0.529991762567     2.440512917650
H                    -2.874995977887     1.282922063329     2.847243633623
H                    -3.073657098641     0.116605976407     0.714350498633
H                    -3.249572738225     1.863331465107     0.449455071059
H                     0.393623647352     1.306558578377    -1.878845845527
H                     0.134354839349     1.203653354503    -4.366315588721
H                    -3.840982617649     0.661214306754    -1.404007482490
H                    -5.047366103217    -0.195713603690    -3.816244360940
H                    -4.921615780565     1.499409042310    -4.295380198564
H                    -3.694753232196    -0.927862030576    -5.689760412978
H                    -4.456590913649     0.462755479865    -6.473943618172
H                    -1.336502711147    -0.927370340279    -6.412592130018
H                    -0.474694151663     0.585262247847    -6.646657227622
