
  -OEChem-12102412483D

 49 53  0     0  0  0  0  0  0999 V2000
    3.3428    0.4696   -4.3504 C   0  0  0  0  0  0  0  0  0  0  0  0
    2.4864   -0.5094   -3.5845 C   0  0  0  0  0  0  0  0  0  0  0  0
    2.2622   -0.3481   -2.2159 C   0  0  0  0  0  0  0  0  0  0  0  0
    1.4200   -1.2328   -1.5284 C   0  0  0  0  0  0  0  0  0  0  0  0
    0.8431   -2.2655   -2.2802 C   0  0  0  0  0  0  0  0  0  0  0  0
    1.1283   -2.3552   -3.6435 C   0  0  0  0  0  0  0  0  0  0  0  0
    1.9316   -1.5099   -4.3007 N   0  0  0  0  0  0  0  0  0  0  0  0
    1.2185   -1.1428   -0.0599 C   0  0  0  0  0  0  0  0  0  0  0  0
    1.4012   -2.3165    0.6902 C   0  0  0  0  0  0  0  0  0  0  0  0
    1.3364   -2.3189    2.0784 C   0  0  0  0  0  0  0  0  0  0  0  0
    1.0871   -1.1139    2.7584 C   0  0  0  0  0  0  0  0  0  0  0  0
    0.8836    0.0635    2.0370 C   0  0  0  0  0  0  0  0  0  0  0  0
    0.9274    0.0646    0.6262 C   0  0  0  0  0  0  0  0  0  0  0  0
    0.6321    1.3258   -0.0602 C   0  0  0  0  0  0  0  0  0  0  0  0
    0.0526    1.4299   -1.2753 N   0  0  0  0  0  0  0  0  0  0  0  0
   -0.0550    2.7506   -1.4850 N   0  5  0  0  0  0  0  0  0  0  0  0
    0.4481    3.4133   -0.4387 N   0  0  0  0  0  0  0  0  0  0  0  0
    0.8799    2.5388    0.4821 N   0  0  0  0  0  0  0  0  0  0  0  0
    1.0475   -1.1968    4.1755 N   0  0  0  0  0  0  0  0  0  0  0  0
    0.8083   -0.2235    5.1041 C   0  0  0  0  0  0  0  0  0  0  0  0
    0.5916    0.9588    4.8473 O   0  0  0  0  0  0  0  0  0  0  0  0
    0.8307   -0.7034    6.5529 C   0  0  0  0  0  0  0  0  0  0  0  0
   -0.0828    0.0879    7.4784 C   0  0  0  0  0  0  0  0  0  0  0  0
    1.4016    0.3137    7.5308 C   0  0  0  0  0  0  0  0  0  0  0  0
    1.0304   -2.1637    6.8230 C   0  0  0  0  0  0  0  0  0  0  0  0
   -0.0572   -3.0508    6.7822 C   0  0  0  0  0  0  0  0  0  0  0  0
    0.1337   -4.4199    6.9795 C   0  0  0  0  0  0  0  0  0  0  0  0
    1.4123   -4.9323    7.2230 C   0  0  0  0  0  0  0  0  0  0  0  0
    2.4892   -4.0453    7.2618 C   0  0  0  0  0  0  0  0  0  0  0  0
    2.3146   -2.6759    7.0611 C   0  0  0  0  0  0  0  0  0  0  0  0
    4.1065   -4.6704    7.5680 Cl  0  0  0  0  0  0  0  0  0  0  0  0
    2.7031    1.1635   -4.9082 H   0  0  0  0  0  0  0  0  0  0  0  0
    3.9730    1.0626   -3.6819 H   0  0  0  0  0  0  0  0  0  0  0  0
    3.9736   -0.0564   -5.0735 H   0  0  0  0  0  0  0  0  0  0  0  0
    2.7236    0.4791   -1.6876 H   0  0  0  0  0  0  0  0  0  0  0  0
    0.1591   -2.9729   -1.8187 H   0  0  0  0  0  0  0  0  0  0  0  0
    0.6808   -3.1504   -4.2414 H   0  0  0  0  0  0  0  0  0  0  0  0
    1.6404   -3.2403    0.1700 H   0  0  0  0  0  0  0  0  0  0  0  0
    1.4963   -3.2421    2.6339 H   0  0  0  0  0  0  0  0  0  0  0  0
    0.6730    0.9939    2.5459 H   0  0  0  0  0  0  0  0  0  0  0  0
    1.2080   -2.1263    4.5408 H   0  0  0  0  0  0  0  0  0  0  0  0
   -0.6868    0.8549    7.0056 H   0  0  0  0  0  0  0  0  0  0  0  0
   -0.5456   -0.4615    8.2930 H   0  0  0  0  0  0  0  0  0  0  0  0
    1.9492   -0.0777    8.3833 H   0  0  0  0  0  0  0  0  0  0  0  0
    1.7812    1.2314    7.0946 H   0  0  0  0  0  0  0  0  0  0  0  0
   -1.0517   -2.6584    6.5879 H   0  0  0  0  0  0  0  0  0  0  0  0
   -0.7142   -5.0989    6.9421 H   0  0  0  0  0  0  0  0  0  0  0  0
    1.5714   -5.9947    7.3785 H   0  0  0  0  0  0  0  0  0  0  0  0
    3.1689   -2.0063    7.0834 H   0  0  0  0  0  0  0  0  0  0  0  0
  1  2  1  0  0  0  0
  1 32  1  0  0  0  0
  1 33  1  0  0  0  0
  1 34  1  0  0  0  0
  2  3  1  0  0  0  0
  2  7  2  0  0  0  0
  3  4  2  0  0  0  0
  3 35  1  0  0  0  0
  4  5  1  0  0  0  0
  4  8  1  0  0  0  0
  5  6  2  0  0  0  0
  5 36  1  0  0  0  0
  6  7  1  0  0  0  0
  6 37  1  0  0  0  0
  8  9  1  0  0  0  0
  8 13  2  0  0  0  0
  9 10  2  0  0  0  0
  9 38  1  0  0  0  0
 10 11  1  0  0  0  0
 10 39  1  0  0  0  0
 11 12  2  0  0  0  0
 11 19  1  0  0  0  0
 12 13  1  0  0  0  0
 12 40  1  0  0  0  0
 13 14  1  0  0  0  0
 14 15  2  0  0  0  0
 14 18  1  0  0  0  0
 15 16  1  0  0  0  0
 16 17  1  0  0  0  0
 17 18  2  0  0  0  0
 19 20  1  0  0  0  0
 19 41  1  0  0  0  0
 20 21  2  0  0  0  0
 20 22  1  0  0  0  0
 22 23  1  0  0  0  0
 22 24  1  0  0  0  0
 22 25  1  0  0  0  0
 23 24  1  0  0  0  0
 23 42  1  0  0  0  0
 23 43  1  0  0  0  0
 24 44  1  0  0  0  0
 24 45  1  0  0  0  0
 25 26  2  0  0  0  0
 25 30  1  0  0  0  0
 26 27  1  0  0  0  0
 26 46  1  0  0  0  0
 27 28  2  0  0  0  0
 27 47  1  0  0  0  0
 28 29  1  0  0  0  0
 28 48  1  0  0  0  0
 29 30  2  0  0  0  0
 29 31  1  0  0  0  0
 30 49  1  0  0  0  0
M  CHG  1  16  -1
M  END
$$$$
