
  -OEChem-12102412483D

 49 53  0     0  0  0  0  0  0999 V2000
   -0.1236   -1.5946   -4.7356 C   0  0  0  0  0  0  0  0  0  0  0  0
    0.9650   -1.8567   -3.7233 C   0  0  0  0  0  0  0  0  0  0  0  0
    0.7817   -1.5422   -2.3755 C   0  0  0  0  0  0  0  0  0  0  0  0
    1.8209   -1.7391   -1.4558 C   0  0  0  0  0  0  0  0  0  0  0  0
    3.0172   -2.2667   -1.9609 C   0  0  0  0  0  0  0  0  0  0  0  0
    3.1101   -2.5589   -3.3225 C   0  0  0  0  0  0  0  0  0  0  0  0
    2.1183   -2.3699   -4.2013 N   0  0  0  0  0  0  0  0  0  0  0  0
    1.6402   -1.4917   -0.0027 C   0  0  0  0  0  0  0  0  0  0  0  0
    2.0126   -2.5201    0.8787 C   0  0  0  0  0  0  0  0  0  0  0  0
    1.7910   -2.4306    2.2478 C   0  0  0  0  0  0  0  0  0  0  0  0
    1.1709   -1.2827    2.7716 C   0  0  0  0  0  0  0  0  0  0  0  0
    0.8073   -0.2379    1.9204 C   0  0  0  0  0  0  0  0  0  0  0  0
    1.0509   -0.3171    0.5324 C   0  0  0  0  0  0  0  0  0  0  0  0
    0.7062    0.8507   -0.2839 C   0  0  0  0  0  0  0  0  0  0  0  0
   -0.2881    1.7089    0.0351 N   0  0  0  0  0  0  0  0  0  0  0  0
   -0.2576    2.6344   -0.9352 N   0  5  0  0  0  0  0  0  0  0  0  0
    0.7277    2.3519   -1.7933 N   0  0  0  0  0  0  0  0  0  0  0  0
    1.3505    1.2275   -1.4092 N   0  0  0  0  0  0  0  0  0  0  0  0
    0.9691   -1.2720    4.1772 N   0  0  0  0  0  0  0  0  0  0  0  0
    0.4236   -0.3080    4.9771 C   0  0  0  0  0  0  0  0  0  0  0  0
   -0.0245    0.7663    4.5822 O   0  0  0  0  0  0  0  0  0  0  0  0
    0.3919   -0.6537    6.4635 C   0  0  0  0  0  0  0  0  0  0  0  0
   -0.8355   -0.1270    7.1933 C   0  0  0  0  0  0  0  0  0  0  0  0
    0.4886    0.5577    7.3802 C   0  0  0  0  0  0  0  0  0  0  0  0
    1.0091   -1.9424    6.9146 C   0  0  0  0  0  0  0  0  0  0  0  0
    2.3899   -2.0250    7.1557 C   0  0  0  0  0  0  0  0  0  0  0  0
    2.9766   -3.2376    7.5234 C   0  0  0  0  0  0  0  0  0  0  0  0
    2.1987   -4.3921    7.6598 C   0  0  0  0  0  0  0  0  0  0  0  0
    0.8268   -4.3034    7.4183 C   0  0  0  0  0  0  0  0  0  0  0  0
    0.2276   -3.1003    7.0449 C   0  0  0  0  0  0  0  0  0  0  0  0
   -0.1700   -5.7452    7.5856 Cl  0  0  0  0  0  0  0  0  0  0  0  0
   -0.1854   -2.4174   -5.4543 H   0  0  0  0  0  0  0  0  0  0  0  0
   -1.0962   -1.4578   -4.2551 H   0  0  0  0  0  0  0  0  0  0  0  0
    0.1036   -0.6795   -5.2948 H   0  0  0  0  0  0  0  0  0  0  0  0
   -0.1613   -1.1220   -2.0431 H   0  0  0  0  0  0  0  0  0  0  0  0
    3.8740   -2.4214   -1.3104 H   0  0  0  0  0  0  0  0  0  0  0  0
    4.0376   -2.9639   -3.7296 H   0  0  0  0  0  0  0  0  0  0  0  0
    2.4493   -3.4284    0.4717 H   0  0  0  0  0  0  0  0  0  0  0  0
    2.0778   -3.2504    2.9052 H   0  0  0  0  0  0  0  0  0  0  0  0
    0.3463    0.6584    2.3116 H   0  0  0  0  0  0  0  0  0  0  0  0
    1.2973   -2.1044    4.6492 H   0  0  0  0  0  0  0  0  0  0  0  0
   -1.5740    0.3768    6.5790 H   0  0  0  0  0  0  0  0  0  0  0  0
   -1.2190   -0.7318    8.0099 H   0  0  0  0  0  0  0  0  0  0  0  0
    1.0096    0.4154    8.3225 H   0  0  0  0  0  0  0  0  0  0  0  0
    0.6285    1.5142    6.8880 H   0  0  0  0  0  0  0  0  0  0  0  0
    2.9994   -1.1322    7.0457 H   0  0  0  0  0  0  0  0  0  0  0  0
    4.0470   -3.2920    7.7040 H   0  0  0  0  0  0  0  0  0  0  0  0
    2.6446   -5.3394    7.9460 H   0  0  0  0  0  0  0  0  0  0  0  0
   -0.8396   -3.0578    6.8501 H   0  0  0  0  0  0  0  0  0  0  0  0
  1  2  1  0  0  0  0
  1 32  1  0  0  0  0
  1 33  1  0  0  0  0
  1 34  1  0  0  0  0
  2  3  1  0  0  0  0
  2  7  2  0  0  0  0
  3  4  2  0  0  0  0
  3 35  1  0  0  0  0
  4  5  1  0  0  0  0
  4  8  1  0  0  0  0
  5  6  2  0  0  0  0
  5 36  1  0  0  0  0
  6  7  1  0  0  0  0
  6 37  1  0  0  0  0
  8  9  1  0  0  0  0
  8 13  2  0  0  0  0
  9 10  2  0  0  0  0
  9 38  1  0  0  0  0
 10 11  1  0  0  0  0
 10 39  1  0  0  0  0
 11 12  2  0  0  0  0
 11 19  1  0  0  0  0
 12 13  1  0  0  0  0
 12 40  1  0  0  0  0
 13 14  1  0  0  0  0
 14 15  2  0  0  0  0
 14 18  1  0  0  0  0
 15 16  1  0  0  0  0
 16 17  1  0  0  0  0
 17 18  2  0  0  0  0
 19 20  1  0  0  0  0
 19 41  1  0  0  0  0
 20 21  2  0  0  0  0
 20 22  1  0  0  0  0
 22 23  1  0  0  0  0
 22 24  1  0  0  0  0
 22 25  1  0  0  0  0
 23 24  1  0  0  0  0
 23 42  1  0  0  0  0
 23 43  1  0  0  0  0
 24 44  1  0  0  0  0
 24 45  1  0  0  0  0
 25 26  2  0  0  0  0
 25 30  1  0  0  0  0
 26 27  1  0  0  0  0
 26 46  1  0  0  0  0
 27 28  2  0  0  0  0
 27 47  1  0  0  0  0
 28 29  1  0  0  0  0
 28 48  1  0  0  0  0
 29 30  2  0  0  0  0
 29 31  1  0  0  0  0
 30 49  1  0  0  0  0
M  CHG  1  16  -1
M  END
$$$$
