
  -OEChem-12102412483D

 49 53  0     0  0  0  0  0  0999 V2000
    0.5706    1.3347   -4.1545 C   0  0  0  0  0  0  0  0  0  0  0  0
    1.5381    0.3970   -3.4737 C   0  0  0  0  0  0  0  0  0  0  0  0
    1.4158    0.1079   -2.1127 C   0  0  0  0  0  0  0  0  0  0  0  0
    2.2809   -0.8107   -1.5049 C   0  0  0  0  0  0  0  0  0  0  0  0
    3.2562   -1.3958   -2.3248 C   0  0  0  0  0  0  0  0  0  0  0  0
    3.3111   -1.0427   -3.6737 C   0  0  0  0  0  0  0  0  0  0  0  0
    2.4825   -0.1661   -4.2553 N   0  0  0  0  0  0  0  0  0  0  0  0
    2.2315   -1.0948   -0.0480 C   0  0  0  0  0  0  0  0  0  0  0  0
    3.4365   -1.0056    0.6688 C   0  0  0  0  0  0  0  0  0  0  0  0
    3.5160   -1.1610    2.0523 C   0  0  0  0  0  0  0  0  0  0  0  0
    2.3287   -1.4202    2.7521 C   0  0  0  0  0  0  0  0  0  0  0  0
    1.1222   -1.5369    2.0585 C   0  0  0  0  0  0  0  0  0  0  0  0
    1.0381   -1.3880    0.6636 C   0  0  0  0  0  0  0  0  0  0  0  0
   -0.2842   -1.5758    0.0555 C   0  0  0  0  0  0  0  0  0  0  0  0
   -1.4281   -1.4482    0.7674 N   0  0  0  0  0  0  0  0  0  0  0  0
   -2.4045   -1.7299   -0.1073 N   0  5  0  0  0  0  0  0  0  0  0  0
   -1.8687   -2.0271   -1.2942 N   0  0  0  0  0  0  0  0  0  0  0  0
   -0.5312   -1.9356   -1.2208 N   0  0  0  0  0  0  0  0  0  0  0  0
    2.2622   -1.5861    4.1604 N   0  0  0  0  0  0  0  0  0  0  0  0
    3.2282   -1.3951    5.1019 C   0  0  0  0  0  0  0  0  0  0  0  0
    4.3994   -1.0899    4.8584 O   0  0  0  0  0  0  0  0  0  0  0  0
    2.7647   -1.5723    6.5430 C   0  0  0  0  0  0  0  0  0  0  0  0
    3.4113   -0.5941    7.5181 C   0  0  0  0  0  0  0  0  0  0  0  0
    3.8544   -2.0295    7.4988 C   0  0  0  0  0  0  0  0  0  0  0  0
    1.3502   -2.0021    6.7928 C   0  0  0  0  0  0  0  0  0  0  0  0
    0.3015   -1.0696    6.7460 C   0  0  0  0  0  0  0  0  0  0  0  0
   -1.0233   -1.4812    6.9064 C   0  0  0  0  0  0  0  0  0  0  0  0
   -1.3273   -2.8275    7.1302 C   0  0  0  0  0  0  0  0  0  0  0  0
   -0.2793   -3.7474    7.1856 C   0  0  0  0  0  0  0  0  0  0  0  0
    1.0473   -3.3537    7.0110 C   0  0  0  0  0  0  0  0  0  0  0  0
   -0.6388   -5.4461    7.4739 Cl  0  0  0  0  0  0  0  0  0  0  0  0
   -0.2263    0.7571   -4.6381 H   0  0  0  0  0  0  0  0  0  0  0  0
    0.0982    2.0151   -3.4403 H   0  0  0  0  0  0  0  0  0  0  0  0
    1.0809    1.9154   -4.9283 H   0  0  0  0  0  0  0  0  0  0  0  0
    0.6327    0.5807   -1.5303 H   0  0  0  0  0  0  0  0  0  0  0  0
    3.9469   -2.1335   -1.9252 H   0  0  0  0  0  0  0  0  0  0  0  0
    4.0617   -1.4937   -4.3240 H   0  0  0  0  0  0  0  0  0  0  0  0
    4.3452   -0.7651    0.1225 H   0  0  0  0  0  0  0  0  0  0  0  0
    4.4556   -1.0660    2.5787 H   0  0  0  0  0  0  0  0  0  0  0  0
    0.1976   -1.7544    2.5880 H   0  0  0  0  0  0  0  0  0  0  0  0
    1.3388   -1.8191    4.5040 H   0  0  0  0  0  0  0  0  0  0  0  0
    4.0799    0.1413    7.0834 H   0  0  0  0  0  0  0  0  0  0  0  0
    2.7958   -0.2576    8.3471 H   0  0  0  0  0  0  0  0  0  0  0  0
    3.5490   -2.6693    8.3213 H   0  0  0  0  0  0  0  0  0  0  0  0
    4.8181   -2.2466    7.0511 H   0  0  0  0  0  0  0  0  0  0  0  0
    0.5300   -0.0225    6.5661 H   0  0  0  0  0  0  0  0  0  0  0  0
   -1.8297   -0.7555    6.8471 H   0  0  0  0  0  0  0  0  0  0  0  0
   -2.3540   -3.1580    7.2500 H   0  0  0  0  0  0  0  0  0  0  0  0
    1.8433   -4.0912    7.0358 H   0  0  0  0  0  0  0  0  0  0  0  0
  1  2  1  0  0  0  0
  1 32  1  0  0  0  0
  1 33  1  0  0  0  0
  1 34  1  0  0  0  0
  2  3  1  0  0  0  0
  2  7  2  0  0  0  0
  3  4  2  0  0  0  0
  3 35  1  0  0  0  0
  4  5  1  0  0  0  0
  4  8  1  0  0  0  0
  5  6  2  0  0  0  0
  5 36  1  0  0  0  0
  6  7  1  0  0  0  0
  6 37  1  0  0  0  0
  8  9  1  0  0  0  0
  8 13  2  0  0  0  0
  9 10  2  0  0  0  0
  9 38  1  0  0  0  0
 10 11  1  0  0  0  0
 10 39  1  0  0  0  0
 11 12  2  0  0  0  0
 11 19  1  0  0  0  0
 12 13  1  0  0  0  0
 12 40  1  0  0  0  0
 13 14  1  0  0  0  0
 14 15  2  0  0  0  0
 14 18  1  0  0  0  0
 15 16  1  0  0  0  0
 16 17  1  0  0  0  0
 17 18  2  0  0  0  0
 19 20  1  0  0  0  0
 19 41  1  0  0  0  0
 20 21  2  0  0  0  0
 20 22  1  0  0  0  0
 22 23  1  0  0  0  0
 22 24  1  0  0  0  0
 22 25  1  0  0  0  0
 23 24  1  0  0  0  0
 23 42  1  0  0  0  0
 23 43  1  0  0  0  0
 24 44  1  0  0  0  0
 24 45  1  0  0  0  0
 25 26  2  0  0  0  0
 25 30  1  0  0  0  0
 26 27  1  0  0  0  0
 26 46  1  0  0  0  0
 27 28  2  0  0  0  0
 27 47  1  0  0  0  0
 28 29  1  0  0  0  0
 28 48  1  0  0  0  0
 29 30  2  0  0  0  0
 29 31  1  0  0  0  0
 30 49  1  0  0  0  0
M  CHG  1  16  -1
M  END
$$$$
