
  -OEChem-12122420533D

 49 53  0     0  0  0  0  0  0999 V2000
   -0.5191   -1.4716   -4.2742 C   0  0  0  0  0  0  0  0  0  0  0  0
    0.7934   -1.6365   -3.5471 C   0  0  0  0  0  0  0  0  0  0  0  0
    0.8852   -1.4038   -2.1731 C   0  0  0  0  0  0  0  0  0  0  0  0
    2.1208   -1.5033   -1.5206 C   0  0  0  0  0  0  0  0  0  0  0  0
    3.2249   -1.8513   -2.3112 C   0  0  0  0  0  0  0  0  0  0  0  0
    3.0404   -2.0730   -3.6767 C   0  0  0  0  0  0  0  0  0  0  0  0
    1.8597   -1.9762   -4.3007 N   0  0  0  0  0  0  0  0  0  0  0  0
    2.2516   -1.3346   -0.0509 C   0  0  0  0  0  0  0  0  0  0  0  0
    2.9256   -2.3434    0.6575 C   0  0  0  0  0  0  0  0  0  0  0  0
    3.0428   -2.3536    2.0470 C   0  0  0  0  0  0  0  0  0  0  0  0
    2.4564   -1.2993    2.7621 C   0  0  0  0  0  0  0  0  0  0  0  0
    1.8017   -0.2726    2.0783 C   0  0  0  0  0  0  0  0  0  0  0  0
    1.6872   -0.2543    0.6778 C   0  0  0  0  0  0  0  0  0  0  0  0
    1.0101    0.9039    0.0832 C   0  0  0  0  0  0  0  0  0  0  0  0
    0.1544    1.6782    0.7902 N   0  0  0  0  0  0  0  0  0  0  0  0
   -0.2194    2.6395   -0.0666 N   0  5  0  0  0  0  0  0  0  0  0  0
    0.3966    2.4578   -1.2379 N   0  0  0  0  0  0  0  0  0  0  0  0
    1.1775    1.3677   -1.1723 N   0  0  0  0  0  0  0  0  0  0  0  0
    2.4881   -1.1911    4.1772 N   0  0  0  0  0  0  0  0  0  0  0  0
    2.9185   -2.0907    5.1055 C   0  0  0  0  0  0  0  0  0  0  0  0
    3.4380   -3.1797    4.8439 O   0  0  0  0  0  0  0  0  0  0  0  0
    2.7039   -1.6709    6.5549 C   0  0  0  0  0  0  0  0  0  0  0  0
    3.7125   -2.2540    7.5309 C   0  0  0  0  0  0  0  0  0  0  0  0
    2.3240   -2.8251    7.4761 C   0  0  0  0  0  0  0  0  0  0  0  0
    2.1250   -0.3153    6.8297 C   0  0  0  0  0  0  0  0  0  0  0  0
    0.7411   -0.0976    6.7372 C   0  0  0  0  0  0  0  0  0  0  0  0
    0.2087    1.1802    6.9215 C   0  0  0  0  0  0  0  0  0  0  0  0
    1.0437    2.2627    7.2151 C   0  0  0  0  0  0  0  0  0  0  0  0
    2.4172    2.0371    7.3156 C   0  0  0  0  0  0  0  0  0  0  0  0
    2.9650    0.7698    7.1180 C   0  0  0  0  0  0  0  0  0  0  0  0
    3.4858    3.3842    7.6919 Cl  0  0  0  0  0  0  0  0  0  0  0  0
   -0.6270   -2.2367   -5.0486 H   0  0  0  0  0  0  0  0  0  0  0  0
   -1.3695   -1.5254   -3.5886 H   0  0  0  0  0  0  0  0  0  0  0  0
   -0.5498   -0.4916   -4.7650 H   0  0  0  0  0  0  0  0  0  0  0  0
   -0.0006   -1.1234   -1.6142 H   0  0  0  0  0  0  0  0  0  0  0  0
    4.2179   -1.9248   -1.8758 H   0  0  0  0  0  0  0  0  0  0  0  0
    3.8916   -2.3395   -4.3045 H   0  0  0  0  0  0  0  0  0  0  0  0
    3.3424   -3.1768    0.0974 H   0  0  0  0  0  0  0  0  0  0  0  0
    3.5499   -3.1554    2.5656 H   0  0  0  0  0  0  0  0  0  0  0  0
    1.3577    0.5589    2.6205 H   0  0  0  0  0  0  0  0  0  0  0  0
    2.0660   -0.3430    4.5344 H   0  0  0  0  0  0  0  0  0  0  0  0
    4.5106   -2.8437    7.0931 H   0  0  0  0  0  0  0  0  0  0  0  0
    3.9789   -1.6406    8.3863 H   0  0  0  0  0  0  0  0  0  0  0  0
    1.6407   -2.5934    8.2877 H   0  0  0  0  0  0  0  0  0  0  0  0
    2.2000   -3.7930    7.0022 H   0  0  0  0  0  0  0  0  0  0  0  0
    0.0868   -0.9332    6.5029 H   0  0  0  0  0  0  0  0  0  0  0  0
   -0.8613    1.3430    6.8266 H   0  0  0  0  0  0  0  0  0  0  0  0
    0.6401    3.2604    7.3540 H   0  0  0  0  0  0  0  0  0  0  0  0
    4.0389    0.6237    7.1790 H   0  0  0  0  0  0  0  0  0  0  0  0
  1  2  1  0  0  0  0
  1 32  1  0  0  0  0
  1 33  1  0  0  0  0
  1 34  1  0  0  0  0
  2  3  1  0  0  0  0
  2  7  2  0  0  0  0
  3  4  2  0  0  0  0
  3 35  1  0  0  0  0
  4  5  1  0  0  0  0
  4  8  1  0  0  0  0
  5  6  2  0  0  0  0
  5 36  1  0  0  0  0
  6  7  1  0  0  0  0
  6 37  1  0  0  0  0
  8  9  1  0  0  0  0
  8 13  2  0  0  0  0
  9 10  2  0  0  0  0
  9 38  1  0  0  0  0
 10 11  1  0  0  0  0
 10 39  1  0  0  0  0
 11 12  2  0  0  0  0
 11 19  1  0  0  0  0
 12 13  1  0  0  0  0
 12 40  1  0  0  0  0
 13 14  1  0  0  0  0
 14 15  2  0  0  0  0
 14 18  1  0  0  0  0
 15 16  1  0  0  0  0
 16 17  1  0  0  0  0
 17 18  2  0  0  0  0
 19 20  1  0  0  0  0
 19 41  1  0  0  0  0
 20 21  2  0  0  0  0
 20 22  1  0  0  0  0
 22 23  1  0  0  0  0
 22 24  1  0  0  0  0
 22 25  1  0  0  0  0
 23 24  1  0  0  0  0
 23 42  1  0  0  0  0
 23 43  1  0  0  0  0
 24 44  1  0  0  0  0
 24 45  1  0  0  0  0
 25 26  2  0  0  0  0
 25 30  1  0  0  0  0
 26 27  1  0  0  0  0
 26 46  1  0  0  0  0
 27 28  2  0  0  0  0
 27 47  1  0  0  0  0
 28 29  1  0  0  0  0
 28 48  1  0  0  0  0
 29 30  2  0  0  0  0
 29 31  1  0  0  0  0
 30 49  1  0  0  0  0
M  CHG  1  16  -1
M  END
$$$$
