23
0 1 C8H11NO2S
C                    -3.457149833507     8.743325425528    -3.944104036872
C                    -3.885454300009     9.188786187624    -5.199938032089
C                    -2.090282071453     8.710615415772    -3.655538777253
C                    -2.961210941953     9.593166684727    -6.164348718615
C                    -1.158113406232     9.132551673761    -4.608224013355
C                    -1.589303259102     9.577097319124    -5.867917985900
C                     0.692352131017     9.376780402878    -6.855454399172
C                    -0.244354953757    12.524491481148    -5.791734681844
N                    -0.645313484093     9.990251934219    -6.868573601826
O                    -2.055367588813    11.991609008692    -7.640123669509
O                     0.408814838083    11.825801759811    -8.272517276128
S                    -0.676567166414    11.638891654033    -7.307936781926
H                    -4.180884019945     8.418144082199    -3.201702605733
H                    -4.945579602301     9.208686674522    -5.438154815958
H                    -1.744503542386     8.361410649478    -2.686089667502
H                    -3.287194798397     9.930602872654    -7.140894650398
H                    -0.100094604955     9.108862240993    -4.366918099310
H                     1.190662678411     9.604759692679    -7.796021842282
H                     0.558249026559     8.296427195873    -6.772921603600
H                     1.326784281713     9.720103232181    -6.026530213335
H                    -0.261982100650    13.588487386646    -6.033702363742
H                    -0.988277949297    12.291221996189    -5.029415253333
H                     0.756498013517    12.222358181350    -5.479658999524
