
  -OEChem-12102412493D

 23 23  0     1  0  0  0  0  0999 V2000
   -3.4571    8.7433   -3.9441 C   0  0  0  0  0  0  0  0  0  0  0  0
   -3.8855    9.1888   -5.1999 C   0  0  0  0  0  0  0  0  0  0  0  0
   -2.0903    8.7106   -3.6555 C   0  0  0  0  0  0  0  0  0  0  0  0
   -2.9612    9.5932   -6.1643 C   0  0  0  0  0  0  0  0  0  0  0  0
   -1.1581    9.1326   -4.6082 C   0  0  0  0  0  0  0  0  0  0  0  0
   -1.5893    9.5771   -5.8679 C   0  0  0  0  0  0  0  0  0  0  0  0
    0.6924    9.3768   -6.8555 C   0  0  0  0  0  0  0  0  0  0  0  0
   -0.2444   12.5245   -5.7917 C   0  0  0  0  0  0  0  0  0  0  0  0
   -0.6453    9.9903   -6.8686 N   0  0  2  0  0  0  0  0  0  0  0  0
   -2.0554   11.9916   -7.6401 O   0  0  0  0  0  0  0  0  0  0  0  0
    0.4088   11.8258   -8.2725 O   0  0  0  0  0  0  0  0  0  0  0  0
   -0.6766   11.6389   -7.3079 S   0  0  0  0  0  0  0  0  0  0  0  0
   -4.1809    8.4181   -3.2017 H   0  0  0  0  0  0  0  0  0  0  0  0
   -4.9456    9.2087   -5.4382 H   0  0  0  0  0  0  0  0  0  0  0  0
   -1.7445    8.3614   -2.6861 H   0  0  0  0  0  0  0  0  0  0  0  0
   -3.2872    9.9306   -7.1409 H   0  0  0  0  0  0  0  0  0  0  0  0
   -0.1001    9.1089   -4.3669 H   0  0  0  0  0  0  0  0  0  0  0  0
    1.1907    9.6048   -7.7960 H   0  0  0  0  0  0  0  0  0  0  0  0
    0.5582    8.2964   -6.7729 H   0  0  0  0  0  0  0  0  0  0  0  0
    1.3268    9.7201   -6.0265 H   0  0  0  0  0  0  0  0  0  0  0  0
   -0.2620   13.5885   -6.0337 H   0  0  0  0  0  0  0  0  0  0  0  0
   -0.9883   12.2912   -5.0294 H   0  0  0  0  0  0  0  0  0  0  0  0
    0.7565   12.2224   -5.4797 H   0  0  0  0  0  0  0  0  0  0  0  0
  1  2  1  0  0  0  0
  1  3  2  0  0  0  0
  1 13  1  0  0  0  0
  2  4  2  0  0  0  0
  2 14  1  0  0  0  0
  3  5  1  0  0  0  0
  3 15  1  0  0  0  0
  4  6  1  0  0  0  0
  4 16  1  0  0  0  0
  5  6  2  0  0  0  0
  5 17  1  0  0  0  0
  6  9  1  0  0  0  0
  7  9  1  0  0  0  0
  7 18  1  0  0  0  0
  7 19  1  0  0  0  0
  7 20  1  0  0  0  0
  8 12  1  0  0  0  0
  8 21  1  0  0  0  0
  8 22  1  0  0  0  0
  8 23  1  0  0  0  0
  9 12  1  0  0  0  0
 10 12  2  0  0  0  0
 11 12  2  0  0  0  0
M  END
$$$$
