23
0 1 C10H10N2S
C                     1.836641735140    -1.012251206262    -0.113682155899
C                     3.022616263304    -0.826420108693     0.600726446392
C                     0.641315322720    -1.211316872409     0.586713870896
C                     3.014667434213    -0.836620375144     1.998307113993
C                     0.624007708902    -1.233165038365     1.981583828235
C                    -0.867836242462     0.755706359118     5.467396809946
C                    -0.373635105367     0.581897278757     6.726368788980
C                     1.816405940394    -1.046688614479     2.698899830664
C                     0.906119969943    -0.435901895467     4.888286829268
C                     3.006477951202    -1.669606911549     4.791624716416
N                    -0.152244489889     0.187274248492     4.435914065573
N                     1.836476568349    -1.107215358783     4.123989050589
S                     1.098634983150    -0.353636154466     6.654356512616
H                     1.841921013373    -1.000305618118    -1.200214898575
H                     3.958844802544    -0.660807676402     0.073867661625
H                    -0.288521972922    -1.359323023265     0.043518136778
H                     3.940025721027    -0.663519455602     2.539328294907
H                    -0.304755097705    -1.383077481329     2.516550533929
H                    -1.774877165964     1.303398601955     5.233341888420
H                    -0.768697426802     0.930750338001     7.670806671251
H                     3.721137002483    -0.898479439495     5.109641778202
H                     3.504797568693    -2.359993207439     4.111640451665
H                     2.693590473999    -2.237809787900     5.673473211576
