18
0 1 C7H9NO
C                     1.818692631541    -1.044539826914    -0.129971791516
C                     0.713682661117    -0.523118031064     0.540663938671
C                     2.899934935636    -1.575806303296     0.586308695781
C                     0.696009306471    -0.533366394432     1.944444250677
C                     2.892097911107    -1.606603395645     1.989857672677
C                     1.765335116586    -1.065312239101     2.654722254414
C                     5.227231754341    -2.386348634995     2.180292479685
N                     3.911403250674    -2.165357532435     2.755361165755
O                     1.816660612219    -1.094654914346     4.039027982508
H                     1.851069751789    -1.039062218354    -1.216161124641
H                    -0.126174796860    -0.108192852523    -0.008778314369
H                     3.753663086116    -1.972960806210     0.046920725075
H                    -0.156433038639    -0.123065150482     2.484935016106
H                     5.650383310128    -1.485766626272     1.707665706965
H                     5.190598260700    -3.181077230725     1.427050885136
H                     5.904667967321    -2.716140064347     2.971502597309
H                     3.905636288016    -1.847018132934     3.715974778249
H                     1.015257186824    -0.677912022669     4.391675062432
