29
0 1 C14H13NO
C                     3.136064284746    -4.648315177350    -8.091822028600
C                     2.285017083602    -4.559021730153    -6.985416242156
C                     4.502404790503    -4.888853567478    -7.902162095781
C                     3.295872637889    -2.268200667947    -2.160819620891
C                     3.492816896100    -2.713394285512    -0.843812496699
C                     2.799952934301    -4.685551276831    -5.692579853281
C                     5.012578792445    -5.041142947469    -6.612458070861
C                     3.711483058584    -3.080063227993    -3.207684901182
C                     4.120396704635    -3.923895505336    -0.583703588123
C                     4.170285198386    -4.920965575235    -5.496303051578
C                     4.332627193804    -4.329172968394    -2.991705837072
C                     4.583030918251    -4.750680857431    -1.639397703331
C                     4.757886060247    -5.156976076435    -4.134438104414
C                     5.540744787800    -6.389301908537    -0.039106137659
N                     5.227589192379    -5.922479193798    -1.373771127481
O                     5.593353522294    -6.071935687093    -4.019496871887
H                     2.736045493760    -4.539102182292    -9.096686079754
H                     1.220409052365    -4.393000905350    -7.128584967166
H                     5.165712644013    -4.965529980026    -8.759838717893
H                     2.832450220110    -1.306508751051    -2.358597613673
H                     3.164685622659    -2.098758611933    -0.008696286609
H                     2.133511462685    -4.626071276801    -4.837359560653
H                     6.064982377922    -5.256055507828    -6.452891429993
H                     3.578067551118    -2.735878125592    -4.227175452773
H                     4.277046970519    -4.231066360509     0.444188905838
H                     6.184467062479    -5.686875899753     0.509259599598
H                     6.068172665614    -7.341488945462    -0.122057480654
H                     4.632879723711    -6.557182304392     0.553766678622
H                     5.660604891838    -6.366912351961    -2.178081265084
