
  -OEChem-12122420533D

 24 24  0     0  0  0  0  0  0999 V2000
    1.6601   -4.4915   -1.0130 C   0  0  0  0  0  0  0  0  0  0  0  0
    1.5825   -3.0988   -1.0072 C   0  0  0  0  0  0  0  0  0  0  0  0
    0.6149   -5.2325   -0.4525 C   0  0  0  0  0  0  0  0  0  0  0  0
    0.4702   -2.4572   -0.4545 C   0  0  0  0  0  0  0  0  0  0  0  0
   -0.5024   -4.6154    0.1178 C   0  0  0  0  0  0  0  0  0  0  0  0
   -0.5768   -3.2003    0.1136 C   0  0  0  0  0  0  0  0  0  0  0  0
   -1.3284   -5.6621    2.2834 C   0  0  0  0  0  0  0  0  0  0  0  0
   -1.8532   -1.1239    0.5909 C   0  0  0  0  0  0  0  0  0  0  0  0
   -1.5629   -5.4782    0.7744 C   0  0  0  0  0  0  0  0  0  0  0  0
   -1.4785   -4.5307    3.0420 N   0  0  0  0  0  0  0  0  0  0  0  0
   -1.6790   -2.5670    0.7428 N   0  0  0  0  0  0  0  0  0  0  0  0
   -1.0522   -6.7575    2.7633 O   0  0  0  0  0  0  0  0  0  0  0  0
    2.5195   -4.9969   -1.4441 H   0  0  0  0  0  0  0  0  0  0  0  0
    2.3825   -2.5023   -1.4383 H   0  0  0  0  0  0  0  0  0  0  0  0
    0.6695   -6.3185   -0.4411 H   0  0  0  0  0  0  0  0  0  0  0  0
    0.4255   -1.3739   -0.4694 H   0  0  0  0  0  0  0  0  0  0  0  0
   -1.0423   -0.5933    1.0981 H   0  0  0  0  0  0  0  0  0  0  0  0
   -2.7908   -0.8368    1.0730 H   0  0  0  0  0  0  0  0  0  0  0  0
   -1.8808   -0.7946   -0.4583 H   0  0  0  0  0  0  0  0  0  0  0  0
   -2.5744   -5.0833    0.6180 H   0  0  0  0  0  0  0  0  0  0  0  0
   -1.5431   -6.4802    0.3456 H   0  0  0  0  0  0  0  0  0  0  0  0
   -1.1677   -4.5935    4.0041 H   0  0  0  0  0  0  0  0  0  0  0  0
   -1.4851   -3.6181    2.5890 H   0  0  0  0  0  0  0  0  0  0  0  0
   -2.5462   -3.0599    0.5519 H   0  0  0  0  0  0  0  0  0  0  0  0
  1  2  1  0  0  0  0
  1  3  2  0  0  0  0
  1 13  1  0  0  0  0
  2  4  2  0  0  0  0
  2 14  1  0  0  0  0
  3  5  1  0  0  0  0
  3 15  1  0  0  0  0
  4  6  1  0  0  0  0
  4 16  1  0  0  0  0
  5  6  2  0  0  0  0
  5  9  1  0  0  0  0
  6 11  1  0  0  0  0
  7  9  1  0  0  0  0
  7 10  1  0  0  0  0
  7 12  2  0  0  0  0
  8 11  1  0  0  0  0
  8 17  1  0  0  0  0
  8 18  1  0  0  0  0
  8 19  1  0  0  0  0
  9 20  1  0  0  0  0
  9 21  1  0  0  0  0
 10 22  1  0  0  0  0
 10 23  1  0  0  0  0
 11 24  1  0  0  0  0
M  END
$$$$
