
  -OEChem-12102412493D

 23 23  0     0  0  0  0  0  0999 V2000
    1.7960   -1.2209   -0.1230 C   0  0  0  0  0  0  0  0  0  0  0  0
    0.8523   -0.4344    0.5577 C   0  0  0  0  0  0  0  0  0  0  0  0
    2.7768   -1.8711    0.6139 C   0  0  0  0  0  0  0  0  0  0  0  0
    0.8900   -0.3027    1.9389 C   0  0  0  0  0  0  0  0  0  0  0  0
    2.8469   -1.7612    2.0168 C   0  0  0  0  0  0  0  0  0  0  0  0
    1.8837   -0.9584    2.7117 C   0  0  0  0  0  0  0  0  0  0  0  0
    3.9039   -2.4678    2.7571 C   0  0  0  0  0  0  0  0  0  0  0  0
    0.9670   -0.0249    4.8237 C   0  0  0  0  0  0  0  0  0  0  0  0
    5.7857   -3.8935    2.6381 C   0  0  0  0  0  0  0  0  0  0  0  0
    1.9106   -0.8216    4.0689 N   0  0  0  0  0  0  0  0  0  0  0  0
    4.0627   -2.4444    3.9795 O   0  0  0  0  0  0  0  0  0  0  0  0
    4.7344   -3.1842    1.9572 O   0  0  0  0  0  0  0  0  0  0  0  0
    1.7601   -1.3191   -1.2036 H   0  0  0  0  0  0  0  0  0  0  0  0
    0.0754    0.0836   -0.0001 H   0  0  0  0  0  0  0  0  0  0  0  0
    3.5168   -2.4842    0.1122 H   0  0  0  0  0  0  0  0  0  0  0  0
    0.1472    0.3117    2.4349 H   0  0  0  0  0  0  0  0  0  0  0  0
    0.9996    1.0348    4.5364 H   0  0  0  0  0  0  0  0  0  0  0  0
    1.2249   -0.0957    5.8821 H   0  0  0  0  0  0  0  0  0  0  0  0
   -0.0645   -0.3820    4.7011 H   0  0  0  0  0  0  0  0  0  0  0  0
    6.3438   -4.4049    1.8535 H   0  0  0  0  0  0  0  0  0  0  0  0
    5.3678   -4.6145    3.3449 H   0  0  0  0  0  0  0  0  0  0  0  0
    6.4321   -3.1972    3.1779 H   0  0  0  0  0  0  0  0  0  0  0  0
    2.6520   -1.3205    4.5494 H   0  0  0  0  0  0  0  0  0  0  0  0
  1  2  1  0  0  0  0
  1  3  2  0  0  0  0
  1 13  1  0  0  0  0
  2  4  2  0  0  0  0
  2 14  1  0  0  0  0
  3  5  1  0  0  0  0
  3 15  1  0  0  0  0
  4  6  1  0  0  0  0
  4 16  1  0  0  0  0
  5  6  2  0  0  0  0
  5  7  1  0  0  0  0
  6 10  1  0  0  0  0
  7 11  2  0  0  0  0
  7 12  1  0  0  0  0
  8 10  1  0  0  0  0
  8 17  1  0  0  0  0
  8 18  1  0  0  0  0
  8 19  1  0  0  0  0
  9 12  1  0  0  0  0
  9 20  1  0  0  0  0
  9 21  1  0  0  0  0
  9 22  1  0  0  0  0
 10 23  1  0  0  0  0
M  END
$$$$
