
  -OEChem-12102412493D

 17 17  0     0  0  0  0  0  0999 V2000
    1.8234   -1.0401   -0.1752 C   0  0  0  0  0  0  0  0  0  0  0  0
    0.6995   -0.5134    0.4640 C   0  0  0  0  0  0  0  0  0  0  0  0
    2.8940   -1.5614    0.5608 C   0  0  0  0  0  0  0  0  0  0  0  0
    0.6501   -0.5076    1.8661 C   0  0  0  0  0  0  0  0  0  0  0  0
    2.8608   -1.5779    1.9677 C   0  0  0  0  0  0  0  0  0  0  0  0
    1.7140   -1.0322    2.5752 C   0  0  0  0  0  0  0  0  0  0  0  0
    5.1890   -2.3614    2.2173 C   0  0  0  0  0  0  0  0  0  0  0  0
    3.8615   -2.1246    2.7617 N   0  0  0  0  0  0  0  0  0  0  0  0
    1.6823   -1.0213    3.9450 F   0  0  0  0  0  0  0  0  0  0  0  0
    1.8773   -1.0454   -1.2606 H   0  0  0  0  0  0  0  0  0  0  0  0
   -0.1277   -0.1080   -0.1104 H   0  0  0  0  0  0  0  0  0  0  0  0
    3.7578   -1.9608    0.0396 H   0  0  0  0  0  0  0  0  0  0  0  0
   -0.1986   -0.1024    2.4093 H   0  0  0  0  0  0  0  0  0  0  0  0
    5.6288   -1.4682    1.7473 H   0  0  0  0  0  0  0  0  0  0  0  0
    5.1609   -3.1630    1.4716 H   0  0  0  0  0  0  0  0  0  0  0  0
    5.8451   -2.6893    3.0267 H   0  0  0  0  0  0  0  0  0  0  0  0
    3.8392   -1.7980    3.7191 H   0  0  0  0  0  0  0  0  0  0  0  0
  1  2  1  0  0  0  0
  1  3  2  0  0  0  0
  1 10  1  0  0  0  0
  2  4  2  0  0  0  0
  2 11  1  0  0  0  0
  3  5  1  0  0  0  0
  3 12  1  0  0  0  0
  4  6  1  0  0  0  0
  4 13  1  0  0  0  0
  5  6  2  0  0  0  0
  5  8  1  0  0  0  0
  6  9  1  0  0  0  0
  7  8  1  0  0  0  0
  7 14  1  0  0  0  0
  7 15  1  0  0  0  0
  7 16  1  0  0  0  0
  8 17  1  0  0  0  0
M  END
$$$$
