
  -OEChem-12122420533D

 29 30  0     0  0  0  0  0  0999 V2000
    4.4894   -3.3145    6.8004 C   0  0  0  0  0  0  0  0  0  0  0  0
   -1.0109   -1.6044    8.9920 C   0  0  0  0  0  0  0  0  0  0  0  0
    4.0527   -3.8773    5.5957 C   0  0  0  0  0  0  0  0  0  0  0  0
    3.9151   -2.1245    7.2605 C   0  0  0  0  0  0  0  0  0  0  0  0
   -0.8115   -0.2805    8.5836 C   0  0  0  0  0  0  0  0  0  0  0  0
   -0.7609   -2.6482    8.0958 C   0  0  0  0  0  0  0  0  0  0  0  0
    3.0458   -3.2531    4.8574 C   0  0  0  0  0  0  0  0  0  0  0  0
    2.8929   -1.5112    6.5334 C   0  0  0  0  0  0  0  0  0  0  0  0
   -0.3522   -0.0042    7.2944 C   0  0  0  0  0  0  0  0  0  0  0  0
   -0.3187   -2.3745    6.7992 C   0  0  0  0  0  0  0  0  0  0  0  0
    2.4461   -2.0771    5.3302 C   0  0  0  0  0  0  0  0  0  0  0  0
   -0.0973   -1.0509    6.3973 C   0  0  0  0  0  0  0  0  0  0  0  0
    1.3987   -1.4388    4.4636 C   0  0  0  0  0  0  0  0  0  0  0  0
   -0.5689   -0.0513    4.1836 C   0  0  0  0  0  0  0  0  0  0  0  0
    0.3635   -0.7523    5.0767 N   0  0  0  0  0  0  0  0  0  0  0  0
    1.4851   -1.4866    3.2350 O   0  0  0  0  0  0  0  0  0  0  0  0
    5.2779   -3.7960    7.3732 H   0  0  0  0  0  0  0  0  0  0  0  0
   -1.3597   -1.8191    9.9985 H   0  0  0  0  0  0  0  0  0  0  0  0
    4.5031   -4.7960    5.2287 H   0  0  0  0  0  0  0  0  0  0  0  0
    4.2619   -1.6748    8.1872 H   0  0  0  0  0  0  0  0  0  0  0  0
   -1.0009    0.5375    9.2737 H   0  0  0  0  0  0  0  0  0  0  0  0
   -0.9181   -3.6791    8.4017 H   0  0  0  0  0  0  0  0  0  0  0  0
    2.7163   -3.6612    3.9067 H   0  0  0  0  0  0  0  0  0  0  0  0
    2.4520   -0.5906    6.9003 H   0  0  0  0  0  0  0  0  0  0  0  0
   -0.1692    1.0212    6.9838 H   0  0  0  0  0  0  0  0  0  0  0  0
   -0.1316   -3.1846    6.1009 H   0  0  0  0  0  0  0  0  0  0  0  0
   -1.1554    0.6572    4.7696 H   0  0  0  0  0  0  0  0  0  0  0  0
   -1.2483   -0.7572    3.6911 H   0  0  0  0  0  0  0  0  0  0  0  0
   -0.0065    0.4777    3.4140 H   0  0  0  0  0  0  0  0  0  0  0  0
  1  3  1  0  0  0  0
  1  4  2  0  0  0  0
  1 17  1  0  0  0  0
  2  5  1  0  0  0  0
  2  6  2  0  0  0  0
  2 18  1  0  0  0  0
  3  7  2  0  0  0  0
  3 19  1  0  0  0  0
  4  8  1  0  0  0  0
  4 20  1  0  0  0  0
  5  9  2  0  0  0  0
  5 21  1  0  0  0  0
  6 10  1  0  0  0  0
  6 22  1  0  0  0  0
  7 11  1  0  0  0  0
  7 23  1  0  0  0  0
  8 11  2  0  0  0  0
  8 24  1  0  0  0  0
  9 12  1  0  0  0  0
  9 25  1  0  0  0  0
 10 12  2  0  0  0  0
 10 26  1  0  0  0  0
 11 13  1  0  0  0  0
 12 15  1  0  0  0  0
 13 15  1  0  0  0  0
 13 16  2  0  0  0  0
 14 15  1  0  0  0  0
 14 27  1  0  0  0  0
 14 28  1  0  0  0  0
 14 29  1  0  0  0  0
M  END
$$$$
