23
0 1 C8H11NO2S
C                    -1.759792329269     8.428421867820    -0.421199680354
C                    -2.038620024405     9.266874889480     0.664274030553
C                    -0.435621135206     8.251188804527    -0.830900197043
C                    -1.007755194970     9.919879043562     1.341608419255
C                     0.601730581316     8.916811607247    -0.171007425704
C                     0.320510153212     9.755707116307     0.918656548488
C                     2.699576754152     9.787014996958     1.667788843866
C                     1.668750782199    12.465932021918    -0.245326242652
N                     1.375290681008    10.427497865716     1.625327452811
O                     2.588915136480    12.570103164682     2.246846817007
O                     0.070700985820    12.626160271886     1.852577007238
S                     1.402167782042    12.129617234586     1.511349502727
H                    -2.565550782564     7.913077756904    -0.936829070705
H                    -3.063986125819     9.403748178427     0.997288270830
H                    -0.205390593256     7.598290284801    -1.668790010106
H                    -1.217510336024    10.563094048966     2.187805991727
H                     1.624690169988     8.775605304172    -0.505478935350
H                     3.303265058310    10.282281769954     2.426253094685
H                     3.236855477414     9.821336012648     0.709817931778
H                     2.551564078542     8.743280413714     1.951760575415
H                     1.699369700581    13.551153241212    -0.356283411088
H                     2.620203135944    12.026445300106    -0.548705791824
H                     0.836036846142    12.044798509882    -0.809370802147
