26
0 1 C12H12N2
C                    -0.374690411727     1.345456479512     2.485776455497
C                    -0.554742571359     0.323410547045     3.423742087723
C                     0.158553335303     2.572650197564     2.896482721100
C                    -1.255727429511     4.852177607365     7.678900828280
C                    -0.498977829272     5.188727518716     8.812974825103
C                    -0.215110499095     0.529375159989     4.763587076841
C                     0.516063326247     2.775050156397     4.231352327874
C                    -0.874966556119     3.774877652322     6.893447835910
C                     0.611754742884     4.399457481166     9.097685801341
C                     0.325488980500     1.755337657300     5.176824555796
C                     0.284966928670     3.046103539795     7.260941548700
C                     1.855271794557     1.176255389633     7.033432776816
N                     1.008642730987     3.358271865169     8.350010743582
N                     0.702841492271     1.935482888619     6.539581007807
H                    -0.646512927742     1.187686765698     1.445527128614
H                    -0.973840375707    -0.631158184211     3.115937982057
H                     0.309768109841     3.370172843674     2.173405963261
H                    -2.144100478591     5.422142585618     7.417338735582
H                    -0.766153666659     6.024204590621     9.452441292609
H                    -0.374851900737    -0.253247628613     5.500571035118
H                     0.942192080648     3.722384283752     4.549376787558
H                    -1.457184960775     3.484435618100     6.026445783111
H                     1.227292187347     4.609420340151     9.971944979823
H                     2.780437402656     1.762804728750     6.971619348708
H                     1.961196821101     0.277883261985     6.423996406918
H                     1.704153367314     0.895463436317     8.077403029130
