
  -OEChem-12122420533D

 26 27  0     0  0  0  0  0  0999 V2000
    3.1740   -2.0645   -3.2872 C   0  0  0  0  0  0  0  0  0  0  0  0
    3.4622   -2.0212   -1.9207 C   0  0  0  0  0  0  0  0  0  0  0  0
    2.0122   -2.7129   -3.7241 C   0  0  0  0  0  0  0  0  0  0  0  0
   -2.9200   -3.9640    0.6467 C   0  0  0  0  0  0  0  0  0  0  0  0
   -3.4532   -3.0302   -0.2490 C   0  0  0  0  0  0  0  0  0  0  0  0
    2.5941   -2.6155   -0.9995 C   0  0  0  0  0  0  0  0  0  0  0  0
    1.1505   -3.3191   -2.8097 C   0  0  0  0  0  0  0  0  0  0  0  0
   -1.5679   -4.2843    0.5897 C   0  0  0  0  0  0  0  0  0  0  0  0
   -2.5732   -2.4570   -1.1685 C   0  0  0  0  0  0  0  0  0  0  0  0
    1.4366   -3.2740   -1.4373 C   0  0  0  0  0  0  0  0  0  0  0  0
   -0.7609   -3.6499   -0.3888 C   0  0  0  0  0  0  0  0  0  0  0  0
    1.2168   -4.8163    0.4896 C   0  0  0  0  0  0  0  0  0  0  0  0
   -1.2710   -2.7470   -1.2457 N   0  0  0  0  0  0  0  0  0  0  0  0
    0.5960   -3.9299   -0.4883 N   0  0  0  0  0  0  0  0  0  0  0  0
    3.8446   -1.5983   -4.0042 H   0  0  0  0  0  0  0  0  0  0  0  0
    4.3561   -1.5145   -1.5660 H   0  0  0  0  0  0  0  0  0  0  0  0
    1.7797   -2.7548   -4.7852 H   0  0  0  0  0  0  0  0  0  0  0  0
   -3.5531   -4.4414    1.3909 H   0  0  0  0  0  0  0  0  0  0  0  0
   -4.5029   -2.7542   -0.2347 H   0  0  0  0  0  0  0  0  0  0  0  0
    2.8095   -2.5574    0.0643 H   0  0  0  0  0  0  0  0  0  0  0  0
    0.2522   -3.8214   -3.1499 H   0  0  0  0  0  0  0  0  0  0  0  0
   -1.1549   -5.0011    1.2884 H   0  0  0  0  0  0  0  0  0  0  0  0
   -2.9311   -1.7184   -1.8856 H   0  0  0  0  0  0  0  0  0  0  0  0
    1.1648   -4.4139    1.5103 H   0  0  0  0  0  0  0  0  0  0  0  0
    2.2637   -4.9549    0.2234 H   0  0  0  0  0  0  0  0  0  0  0  0
    0.7380   -5.8029    0.4816 H   0  0  0  0  0  0  0  0  0  0  0  0
  1  2  1  0  0  0  0
  1  3  2  0  0  0  0
  1 15  1  0  0  0  0
  2  6  2  0  0  0  0
  2 16  1  0  0  0  0
  3  7  1  0  0  0  0
  3 17  1  0  0  0  0
  4  5  1  0  0  0  0
  4  8  2  0  0  0  0
  4 18  1  0  0  0  0
  5  9  2  0  0  0  0
  5 19  1  0  0  0  0
  6 10  1  0  0  0  0
  6 20  1  0  0  0  0
  7 10  2  0  0  0  0
  7 21  1  0  0  0  0
  8 11  1  0  0  0  0
  8 22  1  0  0  0  0
  9 13  1  0  0  0  0
  9 23  1  0  0  0  0
 10 14  1  0  0  0  0
 11 13  2  0  0  0  0
 11 14  1  0  0  0  0
 12 14  1  0  0  0  0
 12 24  1  0  0  0  0
 12 25  1  0  0  0  0
 12 26  1  0  0  0  0
M  END
$$$$
