24
0 1 C9H12N2O
C                     1.660072916249    -4.491520324377    -1.012951381797
C                     1.582515725275    -3.098830111470    -1.007246713880
C                     0.614936479072    -5.232523029021    -0.452465909468
C                     0.470170623156    -2.457155032915    -0.454488393016
C                    -0.502385196040    -4.615378621538     0.117808118860
C                    -0.576846769124    -3.200294825016     0.113562334303
C                    -1.328388286632    -5.662081216879     2.283431478175
C                    -1.853168151100    -1.123867126241     0.590885496558
C                    -1.562871090267    -5.478187135446     0.774379768733
N                    -1.478523846583    -4.530696159966     3.041998172411
N                    -1.678950646476    -2.567002633159     0.742791117237
O                    -1.052248457177    -6.757492399543     2.763279551281
H                     2.519470861867    -4.996923116418    -1.444131227925
H                     2.382496182567    -2.502321112195    -1.438332890350
H                     0.669474323796    -6.318481640882    -0.441118656704
H                     0.425503102893    -1.373856954733    -0.469369829866
H                    -1.042337777662    -0.593257686866     1.098120183684
H                    -2.790777059677    -0.836842576655     1.073031108944
H                    -1.880818628752    -0.794588871780    -0.458343538956
H                    -2.574426835964    -5.083315529478     0.618001933861
H                    -1.543091880202    -6.480153798495     0.345644059846
H                    -1.167721909684    -4.593488131989     4.004139371342
H                    -1.485059915399    -3.618144803043     2.589034349522
H                    -2.546160872298    -3.059880890729     0.551938159688
