29
0 1 C14H13NO
C                     2.099749988395    -0.861215870424    -0.205260902506
C                    -0.626549759803    -1.747110189949     8.613133845550
C                     3.154451245445    -0.540500332953     0.657114363437
C                     0.863771881020    -1.252902268802     0.321108128752
C                    -0.790139396331    -0.428143289708     8.189793881508
C                    -0.085122244876    -2.684436830110     7.724193365038
C                     2.975343529549    -0.612705515578     2.040160274053
C                     0.676957386981    -1.301685316651     1.704542508359
C                    -0.414659277577    -0.044272177260     6.897490405834
C                     0.288512881658    -2.312221734746     6.434905379241
C                     1.730401287228    -0.974151108566     2.571192705939
C                     0.131066172322    -0.981464491078     6.007702088179
C                     1.602998942117    -1.131594875676     4.060902808411
C                    -0.206700507940     0.574995786618     4.119920244059
N                     0.457969267790    -0.612472121969     4.666202764098
O                     2.467085096191    -1.744350202705     4.682142857001
H                     2.242789509497    -0.815036146906    -1.281740167197
H                    -0.917387539202    -2.043994903793     9.617101682180
H                     4.118523999405    -0.245453472729     0.251255578046
H                     0.048036653977    -1.522438723391    -0.344696123541
H                    -1.209843023918     0.314765019114     8.863186307456
H                     0.044488578989    -3.717826543938     8.035266600509
H                     3.796098140021    -0.399817872982     2.718860739016
H                    -0.281566097241    -1.610693559768     2.114143825488
H                    -0.548366277017     0.989657604245     6.600381574858
H                     0.710391967341    -3.048170447770     5.761892622066
H                     0.143204666726     1.489183825153     4.614333861679
H                    -1.288387204474     0.492257151694     4.256933325749
H                     0.008034513465     0.671012821867     3.059649058193
