
  -OEChem-12122420533D

 29 30  0     0  0  0  0  0  0999 V2000
    2.8254    0.9545    0.5073 C   0  0  0  0  0  0  0  0  0  0  0  0
    2.0263    1.5937    1.4608 C   0  0  0  0  0  0  0  0  0  0  0  0
    3.2848   -0.3485    0.7407 C   0  0  0  0  0  0  0  0  0  0  0  0
   -1.8416   -0.5681    4.7805 C   0  0  0  0  0  0  0  0  0  0  0  0
   -1.9078   -0.5914    6.1830 C   0  0  0  0  0  0  0  0  0  0  0  0
    1.6744    0.9285    2.6382 C   0  0  0  0  0  0  0  0  0  0  0  0
    2.9478   -1.0058    1.9233 C   0  0  0  0  0  0  0  0  0  0  0  0
   -0.5955   -0.6474    4.1731 C   0  0  0  0  0  0  0  0  0  0  0  0
   -0.7481   -0.6693    6.9389 C   0  0  0  0  0  0  0  0  0  0  0  0
    2.1308   -0.3778    2.8774 C   0  0  0  0  0  0  0  0  0  0  0  0
    0.6007   -0.7634    4.9145 C   0  0  0  0  0  0  0  0  0  0  0  0
    0.5330   -0.7437    6.3361 C   0  0  0  0  0  0  0  0  0  0  0  0
    1.8389   -1.1046    4.1579 C   0  0  0  0  0  0  0  0  0  0  0  0
    2.9704   -0.3103    6.8255 C   0  0  0  0  0  0  0  0  0  0  0  0
    1.6305   -0.7642    7.1738 N   0  0  0  0  0  0  0  0  0  0  0  0
    2.6029   -1.9916    4.5430 O   0  0  0  0  0  0  0  0  0  0  0  0
    3.0927    1.4694   -0.4121 H   0  0  0  0  0  0  0  0  0  0  0  0
    1.6785    2.6089    1.2875 H   0  0  0  0  0  0  0  0  0  0  0  0
    3.9072   -0.8456    0.0012 H   0  0  0  0  0  0  0  0  0  0  0  0
   -2.7448   -0.5050    4.1812 H   0  0  0  0  0  0  0  0  0  0  0  0
   -2.8695   -0.5341    6.6868 H   0  0  0  0  0  0  0  0  0  0  0  0
    1.0571    1.4280    3.3787 H   0  0  0  0  0  0  0  0  0  0  0  0
    3.3086   -2.0088    2.1304 H   0  0  0  0  0  0  0  0  0  0  0  0
   -0.5331   -0.6687    3.0892 H   0  0  0  0  0  0  0  0  0  0  0  0
   -0.8126   -0.6592    8.0257 H   0  0  0  0  0  0  0  0  0  0  0  0
    2.9353    0.5188    6.1060 H   0  0  0  0  0  0  0  0  0  0  0  0
    3.5692   -1.1124    6.3877 H   0  0  0  0  0  0  0  0  0  0  0  0
    3.4587    0.0489    7.7351 H   0  0  0  0  0  0  0  0  0  0  0  0
    1.3863   -0.6355    8.1456 H   0  0  0  0  0  0  0  0  0  0  0  0
  1  2  1  0  0  0  0
  1  3  2  0  0  0  0
  1 17  1  0  0  0  0
  2  6  2  0  0  0  0
  2 18  1  0  0  0  0
  3  7  1  0  0  0  0
  3 19  1  0  0  0  0
  4  5  1  0  0  0  0
  4  8  2  0  0  0  0
  4 20  1  0  0  0  0
  5  9  2  0  0  0  0
  5 21  1  0  0  0  0
  6 10  1  0  0  0  0
  6 22  1  0  0  0  0
  7 10  2  0  0  0  0
  7 23  1  0  0  0  0
  8 11  1  0  0  0  0
  8 24  1  0  0  0  0
  9 12  1  0  0  0  0
  9 25  1  0  0  0  0
 10 13  1  0  0  0  0
 11 12  2  0  0  0  0
 11 13  1  0  0  0  0
 12 15  1  0  0  0  0
 13 16  2  0  0  0  0
 14 15  1  0  0  0  0
 14 26  1  0  0  0  0
 14 27  1  0  0  0  0
 14 28  1  0  0  0  0
 15 29  1  0  0  0  0
M  END
$$$$
