20
0 1 C6H8N4O2
C                    -0.274375134584    -1.396549338260    -0.847321761830
C                    -1.675424706971    -0.002119873322    -0.033100542538
C                    -1.672304148959    -1.098396567649     0.839679389846
C                    -2.469530402915     1.266953066768    -0.009493365075
C                    -2.450639490883    -1.481742080124     2.048800314417
C                    -0.370509615424    -3.322290143223     0.739195717931
N                    -0.805795754997    -0.207423655057    -1.072009717551
N                    -0.757466296685    -1.986097741592     0.280410718178
N                    -2.477148120533     1.934499052933     1.220100102834
N                    -3.413683534929    -0.612246480807     2.474428059710
O                    -3.097688565099     1.676480791222    -0.970634217991
O                    -2.255700814300    -2.562839775963     2.615194600648
H                     0.468725651864    -1.877563162302    -1.471191741780
H                     0.048108410407    -3.274855602952     1.743937264561
H                    -1.235785322825    -3.984205054146     0.759626583271
H                     0.376167213028    -3.704160103255     0.039809408880
H                    -2.859592063210     2.874506758848     1.158864266360
H                    -1.626184756934     1.867155416050     1.770320373377
H                    -3.869514857995    -0.860187541518     3.343549625991
H                    -3.444118220265     0.354562632634     2.163901453714
