
  -OEChem-12122420533D

 26 27  0     0  0  0  0  0  0999 V2000
   -0.3747    1.3455    2.4858 C   0  0  0  0  0  0  0  0  0  0  0  0
   -0.5547    0.3234    3.4237 C   0  0  0  0  0  0  0  0  0  0  0  0
    0.1586    2.5727    2.8965 C   0  0  0  0  0  0  0  0  0  0  0  0
   -1.2557    4.8522    7.6789 C   0  0  0  0  0  0  0  0  0  0  0  0
   -0.4990    5.1887    8.8130 C   0  0  0  0  0  0  0  0  0  0  0  0
   -0.2151    0.5294    4.7636 C   0  0  0  0  0  0  0  0  0  0  0  0
    0.5161    2.7751    4.2314 C   0  0  0  0  0  0  0  0  0  0  0  0
   -0.8750    3.7749    6.8934 C   0  0  0  0  0  0  0  0  0  0  0  0
    0.6118    4.3995    9.0977 C   0  0  0  0  0  0  0  0  0  0  0  0
    0.3255    1.7553    5.1768 C   0  0  0  0  0  0  0  0  0  0  0  0
    0.2850    3.0461    7.2609 C   0  0  0  0  0  0  0  0  0  0  0  0
    1.8553    1.1763    7.0334 C   0  0  0  0  0  0  0  0  0  0  0  0
    1.0086    3.3583    8.3500 N   0  0  0  0  0  0  0  0  0  0  0  0
    0.7028    1.9355    6.5396 N   0  0  0  0  0  0  0  0  0  0  0  0
   -0.6465    1.1877    1.4455 H   0  0  0  0  0  0  0  0  0  0  0  0
   -0.9738   -0.6312    3.1159 H   0  0  0  0  0  0  0  0  0  0  0  0
    0.3098    3.3702    2.1734 H   0  0  0  0  0  0  0  0  0  0  0  0
   -2.1441    5.4221    7.4173 H   0  0  0  0  0  0  0  0  0  0  0  0
   -0.7662    6.0242    9.4524 H   0  0  0  0  0  0  0  0  0  0  0  0
   -0.3749   -0.2532    5.5006 H   0  0  0  0  0  0  0  0  0  0  0  0
    0.9422    3.7224    4.5494 H   0  0  0  0  0  0  0  0  0  0  0  0
   -1.4572    3.4844    6.0264 H   0  0  0  0  0  0  0  0  0  0  0  0
    1.2273    4.6094    9.9719 H   0  0  0  0  0  0  0  0  0  0  0  0
    2.7804    1.7628    6.9716 H   0  0  0  0  0  0  0  0  0  0  0  0
    1.9612    0.2779    6.4240 H   0  0  0  0  0  0  0  0  0  0  0  0
    1.7042    0.8955    8.0774 H   0  0  0  0  0  0  0  0  0  0  0  0
  1  2  1  0  0  0  0
  1  3  2  0  0  0  0
  1 15  1  0  0  0  0
  2  6  2  0  0  0  0
  2 16  1  0  0  0  0
  3  7  1  0  0  0  0
  3 17  1  0  0  0  0
  4  5  1  0  0  0  0
  4  8  2  0  0  0  0
  4 18  1  0  0  0  0
  5  9  2  0  0  0  0
  5 19  1  0  0  0  0
  6 10  1  0  0  0  0
  6 20  1  0  0  0  0
  7 10  2  0  0  0  0
  7 21  1  0  0  0  0
  8 11  1  0  0  0  0
  8 22  1  0  0  0  0
  9 13  1  0  0  0  0
  9 23  1  0  0  0  0
 10 14  1  0  0  0  0
 11 13  2  0  0  0  0
 11 14  1  0  0  0  0
 12 14  1  0  0  0  0
 12 24  1  0  0  0  0
 12 25  1  0  0  0  0
 12 26  1  0  0  0  0
M  END
$$$$
