29
0 1 C14H13NO
C                     5.682339813870    -0.875206649111     0.994531739114
C                    -0.972895185833    -2.860806699537     7.142601051107
C                     4.995308554414    -2.055632161543     0.687518165991
C                     5.346498264426    -0.153830312278     2.145083991479
C                    -1.489867659695    -2.612338271401     5.867386670814
C                     0.393142593517    -2.676943701974     7.384127790803
C                     3.978840123289    -2.513659321321     1.528067454378
C                     4.312396849584    -0.599054648581     2.972661199061
C                    -0.646936893939    -2.180658786734     4.839304424489
C                     1.235140991362    -2.236267627922     6.361275640981
C                     3.618162175931    -1.777878119342     2.665192178988
C                     0.715647771273    -1.984337317182     5.086851941400
C                     2.575642181388    -2.352760884291     3.584490989856
C                     1.271351709454    -0.195206456126     3.473933524843
N                     1.583309745096    -1.506882389801     4.046726029227
O                     2.633657905742    -3.534973428164     3.919996199558
H                     6.480785255077    -0.524555842588     0.345674080069
H                    -1.627891946117    -3.200559466539     7.940505562077
H                     5.260333138270    -2.623893326764    -0.200282704939
H                     5.889915935466     0.752775347092     2.398531395073
H                    -2.547270604535    -2.765329784883     5.667830843692
H                     0.803564765043    -2.874967344109     8.370832342791
H                     3.462973931429    -3.446383072268     1.319714177839
H                     4.058371050007    -0.037981916550     3.868216601085
H                    -1.044881463721    -2.012481284334     3.842030023393
H                     2.297816642053    -2.099879906692     6.538443033382
H                     1.558576208648     0.615524310285     4.154382994572
H                     0.196483916372    -0.118714049077     3.290618611992
H                     1.788601043541    -0.062608352822     2.525413955868
