28
0 1 C12H12N2O2
C                     0.709274482658     1.787986451836    -4.342098222308
C                     0.072564340490     3.025012599969    -4.454299332905
C                     0.586308695781     1.061735022324    -3.154513794191
C                    -0.687922965390     3.535892984694    -3.396454112336
C                    -0.609276330834    -0.779362326720     1.403599439235
C                    -0.938535915923    -1.211304246241     0.152143993845
C                    -0.142961340461     1.565872715700    -2.074424350275
C                    -0.802544426713     2.806234865761    -2.206636228300
C                    -0.028716140010     0.529909327341     1.582699460894
C                    -0.275554204911     0.740502431092    -0.841029447913
C                     0.857923583825     2.525198263237     0.489092026378
C                    -2.245953327746     4.443298998137    -1.210355346834
N                    -0.793294610158    -0.457836359642    -0.981005392806
N                     0.159298845449     1.240754979472     0.360462016598
O                     0.316844071706     1.039338036100     2.649938032045
O                    -1.541076048411     3.206542185330    -1.128763089669
H                     1.289131227632     1.389024062608    -5.168987166134
H                     0.155691200982     3.600488106895    -5.372553712004
H                     1.056993398721     0.088636378438    -3.050775782974
H                    -1.190396285311     4.489144699709    -3.512468960756
H                    -0.757459068125    -1.387621557788     2.288984700866
H                    -1.360443397255    -2.202766815742    -0.002070167707
H                     0.176055326493     3.288587068930     0.867789039855
H                     1.250459443919     2.825826090914    -0.480041296873
H                     1.670306827787     2.399302067595     1.204984811991
H                    -2.758861778839     4.554102017251    -0.254558416439
H                    -2.984332414113     4.425488030957    -2.020467341041
H                    -1.558447359289     5.285143606500    -1.355716087896
