23
0 1 C10H10N2S
C                     1.853454668809    -0.998051783585    -0.119663758125
C                     2.982288012044    -0.640710870051     0.624419027765
C                     0.694292671475    -1.414984925052     0.543915774965
C                     2.950394543891    -0.683073839437     2.020617674995
C                     0.663061876068    -1.480542176090     1.938139808017
C                    -0.106383050587     0.421901602174     6.646535209941
C                    -0.853846575048     1.083976086484     5.719545385118
C                     1.788517608170    -1.101939689539     2.686031770223
C                     0.867542400941    -0.434305330780     4.850707754162
C                     2.903294041443    -1.746038500262     4.822787258546
N                     0.865339372711    -0.430820413092     6.161648613065
N                     1.760143782314    -1.172850568208     4.106298513558
S                    -0.331897030766     0.641470705024     4.109524668882
H                     1.878182294347    -0.957485683044    -1.205182671350
H                     3.887560943901    -0.314775121107     0.118832378393
H                    -0.183734994888    -1.709407409085    -0.024945588339
H                     3.821455481148    -0.382662191234     2.595732050226
H                    -0.224412958199    -1.837037686696     2.451735824353
H                    -0.227241849607     0.519650512723     7.720489457945
H                    -1.667644166816     1.780649589731     5.869680230680
H                     3.609982556783    -0.973020950088     5.150104287013
H                     3.408385391528    -2.449243023975     4.159332426066
H                     2.544440480144    -2.271783520461     5.708766717392
