
  -OEChem-12102412493D

 26 27  0     0  0  0  0  0  0999 V2000
    1.6858   -1.2859   -0.0701 C   0  0  0  0  0  0  0  0  0  0  0  0
    0.6883   -0.5613    0.5916 C   0  0  0  0  0  0  0  0  0  0  0  0
    5.6747   -4.0038    2.9447 C   0  0  0  0  0  0  0  0  0  0  0  0
    6.1202   -3.4108    4.1312 C   0  0  0  0  0  0  0  0  0  0  0  0
    2.7323   -1.8181    0.6790 C   0  0  0  0  0  0  0  0  0  0  0  0
    0.7572   -0.3606    1.9665 C   0  0  0  0  0  0  0  0  0  0  0  0
    4.5888   -3.4505    2.2758 C   0  0  0  0  0  0  0  0  0  0  0  0
    5.4246   -2.2948    4.5934 C   0  0  0  0  0  0  0  0  0  0  0  0
    2.8286   -1.6575    2.0733 C   0  0  0  0  0  0  0  0  0  0  0  0
    1.8216   -0.8837    2.7388 C   0  0  0  0  0  0  0  0  0  0  0  0
    3.9590   -2.2946    2.7895 C   0  0  0  0  0  0  0  0  0  0  0  0
    0.9528    0.2196    4.7805 C   0  0  0  0  0  0  0  0  0  0  0  0
    4.3807   -1.7512    3.9550 N   0  0  0  0  0  0  0  0  0  0  0  0
    1.8583   -0.6844    4.1006 N   0  0  0  0  0  0  0  0  0  0  0  0
    1.6552   -1.4229   -1.1469 H   0  0  0  0  0  0  0  0  0  0  0  0
   -0.1413   -0.1349    0.0325 H   0  0  0  0  0  0  0  0  0  0  0  0
    6.1593   -4.8956    2.5548 H   0  0  0  0  0  0  0  0  0  0  0  0
    6.9623   -3.8085    4.6895 H   0  0  0  0  0  0  0  0  0  0  0  0
    3.5210   -2.3530    0.1588 H   0  0  0  0  0  0  0  0  0  0  0  0
   -0.0193    0.2175    2.4545 H   0  0  0  0  0  0  0  0  0  0  0  0
    4.2092   -3.9251    1.3781 H   0  0  0  0  0  0  0  0  0  0  0  0
    5.7152   -1.8109    5.5249 H   0  0  0  0  0  0  0  0  0  0  0  0
    0.9836    1.2437    4.3772 H   0  0  0  0  0  0  0  0  0  0  0  0
    1.2331    0.2586    5.8357 H   0  0  0  0  0  0  0  0  0  0  0  0
   -0.0829   -0.1369    4.7257 H   0  0  0  0  0  0  0  0  0  0  0  0
    2.7805   -0.8236    4.5054 H   0  0  0  0  0  0  0  0  0  0  0  0
  1  2  1  0  0  0  0
  1  5  2  0  0  0  0
  1 15  1  0  0  0  0
  2  6  2  0  0  0  0
  2 16  1  0  0  0  0
  3  4  1  0  0  0  0
  3  7  2  0  0  0  0
  3 17  1  0  0  0  0
  4  8  2  0  0  0  0
  4 18  1  0  0  0  0
  5  9  1  0  0  0  0
  5 19  1  0  0  0  0
  6 10  1  0  0  0  0
  6 20  1  0  0  0  0
  7 11  1  0  0  0  0
  7 21  1  0  0  0  0
  8 13  1  0  0  0  0
  8 22  1  0  0  0  0
  9 10  2  0  0  0  0
  9 11  1  0  0  0  0
 10 14  1  0  0  0  0
 11 13  2  0  0  0  0
 12 14  1  0  0  0  0
 12 23  1  0  0  0  0
 12 24  1  0  0  0  0
 12 25  1  0  0  0  0
 14 26  1  0  0  0  0
M  END
$$$$
