24
0 1 C9H12N2O
C                     2.208753021811    -0.909861416867    -0.036111047564
C                     1.058013223750    -0.379913258503     0.550932125018
C                     3.090137555560    -1.645967332566     0.763785127673
C                     0.797691797606    -0.571798286240     1.909471177537
C                     2.849838649871    -1.859552806441     2.122575835706
C                     1.685425251359    -1.305666893610     2.723852319475
C                     4.633155022863    -1.818583446407     3.892929642499
C                     0.320510333133    -0.873283730255     4.738320748903
C                     3.816360012620    -2.692096828988     2.943771674137
N                     5.828876291442    -1.363915238974     3.404363713520
N                     1.426634713719    -1.538198409198     4.070081524716
O                     4.242074220177    -1.535102002835     5.027921507778
H                     2.412502964627    -0.765710110321    -1.093195427723
H                     0.354404831990     0.193146580916    -0.048223210111
H                     3.977309515250    -2.088977829549     0.313272257829
H                    -0.099175445307    -0.141101885828     2.340888851779
H                    -0.638442107429    -1.204170699312     4.324457083970
H                     0.365801451696     0.224837607035     4.667195759842
H                     0.340188015258    -1.150275434475     5.794783917350
H                     3.272307953356    -3.413005553086     3.561744513835
H                     4.481199215018    -3.248944239744     2.277494750176
H                     6.283044151238    -0.625723608342     3.929720423482
H                     6.005511834288    -1.394855775390     2.408767201066
H                     2.259809362039    -1.623049159707     4.647566492140
