
  -OEChem-12102412493D

 24 24  0     0  0  0  0  0  0999 V2000
    2.0241   -0.3081   -0.2152 C   0  0  0  0  0  0  0  0  0  0  0  0
    0.8854   -0.4614    0.5757 C   0  0  0  0  0  0  0  0  0  0  0  0
    3.2604   -0.7288    0.2851 C   0  0  0  0  0  0  0  0  0  0  0  0
    0.9845   -1.0213    1.8529 C   0  0  0  0  0  0  0  0  0  0  0  0
    3.3849   -1.3032    1.5535 C   0  0  0  0  0  0  0  0  0  0  0  0
    2.2244   -1.4491    2.3536 C   0  0  0  0  0  0  0  0  0  0  0  0
    4.9583   -3.2960    1.6869 C   0  0  0  0  0  0  0  0  0  0  0  0
    1.1846   -2.0822    4.5192 C   0  0  0  0  0  0  0  0  0  0  0  0
    4.7437   -1.8059    2.0022 C   0  0  0  0  0  0  0  0  0  0  0  0
    4.1716   -4.1646    2.3975 N   0  0  0  0  0  0  0  0  0  0  0  0
    2.3344   -2.0840    3.6170 N   0  0  0  0  0  0  0  0  0  0  0  0
    5.7978   -3.6672    0.8723 O   0  0  0  0  0  0  0  0  0  0  0  0
    1.9553    0.1297   -1.2069 H   0  0  0  0  0  0  0  0  0  0  0  0
   -0.0860   -0.1406    0.2081 H   0  0  0  0  0  0  0  0  0  0  0  0
    4.1533   -0.6249   -0.3267 H   0  0  0  0  0  0  0  0  0  0  0  0
    0.0882   -1.1222    2.4549 H   0  0  0  0  0  0  0  0  0  0  0  0
    0.3768   -2.6872    4.0977 H   0  0  0  0  0  0  0  0  0  0  0  0
    0.7928   -1.0754    4.7264 H   0  0  0  0  0  0  0  0  0  0  0  0
    1.4862   -2.5419    5.4635 H   0  0  0  0  0  0  0  0  0  0  0  0
    5.5308   -1.2722    1.4695 H   0  0  0  0  0  0  0  0  0  0  0  0
    4.9141   -1.6414    3.0734 H   0  0  0  0  0  0  0  0  0  0  0  0
    4.1783   -5.1288    2.0866 H   0  0  0  0  0  0  0  0  0  0  0  0
    3.3483   -3.8141    2.8846 H   0  0  0  0  0  0  0  0  0  0  0  0
    3.1782   -1.7956    4.1029 H   0  0  0  0  0  0  0  0  0  0  0  0
  1  2  1  0  0  0  0
  1  3  2  0  0  0  0
  1 13  1  0  0  0  0
  2  4  2  0  0  0  0
  2 14  1  0  0  0  0
  3  5  1  0  0  0  0
  3 15  1  0  0  0  0
  4  6  1  0  0  0  0
  4 16  1  0  0  0  0
  5  6  2  0  0  0  0
  5  9  1  0  0  0  0
  6 11  1  0  0  0  0
  7  9  1  0  0  0  0
  7 10  1  0  0  0  0
  7 12  2  0  0  0  0
  8 11  1  0  0  0  0
  8 17  1  0  0  0  0
  8 18  1  0  0  0  0
  8 19  1  0  0  0  0
  9 20  1  0  0  0  0
  9 21  1  0  0  0  0
 10 22  1  0  0  0  0
 10 23  1  0  0  0  0
 11 24  1  0  0  0  0
M  END
$$$$
