23
0 1 C9H11NO2
C                     1.796023981611    -1.220900758538    -0.122950440738
C                     0.852291291475    -0.434389983258     0.557659316767
C                     2.776803410456    -1.871100029981     0.613899302323
C                     0.889978683865    -0.302726888459     1.938918793914
C                     2.846898281991    -1.761216615023     2.016775562690
C                     1.883654304212    -0.958365482491     2.711734833405
C                     3.903922304198    -2.467848270273     2.757054702166
C                     0.966952986141    -0.024942910703     4.823672942444
C                     5.785746618363    -3.893496946928     2.638135321748
N                     1.910636515715    -0.821642987882     4.068864718763
O                     4.062716436298    -2.444388346952     3.979489704191
O                     4.734449526559    -3.184228613309     1.957220848129
H                     1.760118365932    -1.319082393167    -1.203601352259
H                     0.075410356072     0.083581868225    -0.000109349179
H                     3.516831958065    -2.484166275080     0.112228775981
H                     0.147161340606     0.311749725033     2.434925695323
H                     0.999605659546     1.034751011619     4.536375702550
H                     1.224929755067    -0.095721103478     5.882116942902
H                    -0.064536542284    -0.382003122185     4.701060428980
H                     6.343762881034    -4.404893903863     1.853461987330
H                     5.367848427000    -4.614473606797     3.344853142922
H                     6.432068544883    -3.197214913106     3.177934309685
H                     2.651979110881    -1.320467334596     4.549445474760
