18   
torsion grid (-165,)
C       -0.1184845873    2.7648016725    2.0908099214
C       -1.5180022822    2.2934918047    2.4479543304
C       -1.2941144265    3.0591031868    1.1741542762
C        1.0374813442    3.1065414207   -1.1192562628
N       -1.0962041552    4.5098214704   -1.6405045152
N       -1.4862107548    2.3818416972   -0.0876916596
O       -0.9620741685    1.9712841673   -2.4878755915
S       -0.7270599438    3.0248707977   -1.4784888157
H        0.3149697791    3.5866645921    2.6537263335
H        0.5914735344    2.0055460686    1.7740239373
H       -1.7227592811    1.2290666567    2.3681022513
H       -2.0520288678    2.7890586108    3.2527332664
H       -1.6475870707    4.0840900274    1.1385235627
H        1.3840866229    2.0892820174   -0.9336619349
H        1.5160725000    3.5189368943   -2.0080449387
H        1.2033414844    3.7516945591   -0.2579858127
H       -2.0785655492    4.6061081903   -1.9078395451
H       -1.4026366178    1.3670922132   -0.0659542292
18   
torsion grid (-150,)
C       -0.1134441585    2.8824096884    2.1038687872
C       -1.4499953058    2.2620401519    2.4639333125
C       -1.3246471895    3.0828238939    1.2082972714
C        1.0654522810    3.0531751373   -1.1127769641
N       -1.0135104156    4.5442585029   -1.5947464666
N       -1.4684222670    2.4195297988   -0.0634756214
O       -0.9916153064    2.0089154193   -2.4645708864
S       -0.7048280185    3.0437697585   -1.4487620001
H        0.2418070132    3.7307713526    2.6817122725
H        0.6636418493    2.2071662108    1.7579977102
H       -1.5450860958    1.1847087368    2.3565576842
H       -2.0214460816    2.6794006518    3.2870258547
H       -1.7859722031    4.0649156139    1.2184236594
H        1.3707152408    2.0237131879   -0.9218162449
H        1.5499633951    3.4367503605   -2.0112739992
H        1.2687469304    3.7001474017   -0.2610264914
H       -1.9946332068    4.6835809140   -1.8474053698
H       -1.5116789056    1.4039393886   -0.0659839002
18   
torsion grid (-135,)
C       -0.1498552178    2.9549986462    2.1088018354
C       -1.4284477972    2.2195980546    2.4547672118
C       -1.3699838015    3.0667603017    1.2100953309
C        1.0738711465    2.9840621699   -1.1476403600
N       -0.9615671955    4.5479489425   -1.5662695358
N       -1.4411779488    2.4072050604   -0.0652689977
O       -1.0391843529    2.0274680019   -2.4767895935
S       -0.7006809890    3.0354687937   -1.4494341346
H        0.1288755639    3.8245028609    2.6966823994
H        0.6813532782    2.3525165060    1.7561163000
H       -1.4303889515    1.1400648654    2.3304666706
H       -2.0371374560    2.5758786983    3.2798463805
H       -1.9093857798    4.0087406113    1.2386467010
H        1.3458520295    1.9439425280   -0.9645578088
H        1.5570246723    3.3549497980   -2.0522367286
H        1.3125289150    3.6212051158   -0.2975475931
H       -1.9420021463    4.7240147996   -1.7980522604
H       -1.6295863617    1.4112586079   -0.1103486253
18   
torsion grid (-120,)
C       -0.1505216953    3.0157457982    2.1903895099
C       -1.4265301966    2.2596464823    2.4982866186
C       -1.3326632347    3.0813955335    1.2389495597
C        1.1240536300    3.0072872550   -1.1795192864
N       -0.9280516669    4.5684355778   -1.5113493552
N       -1.2964024776    2.3844252568   -0.0141687992
O       -1.0378727872    2.0624930932   -2.4509124098
S       -0.6568531407    3.0547448992   -1.4225986268
H        0.0827819640    3.9029460004    2.7714382215
H        0.7065779123    2.4265552348    1.8796661398
H       -1.4011951867    1.1786825620    2.3942083729
H       -2.0768611011    2.6221853132    3.2881230561
H       -1.8736580364    4.0238606065    1.2161968182
H        1.4046862534    1.9617964538   -1.0498288901
H        1.5821727080    3.4260897628   -2.0761191735
H        1.3786212119    3.6042594116   -0.3046004511
H       -1.9152431312    4.7439663310   -1.7134379727
H       -1.6816879645    1.4531069525   -0.1186872675
18   
torsion grid (-105,)
C       -0.1323457229    2.9063460088    2.2300591314
C       -1.4932493144    2.2698780549    2.4385431730
C       -1.1880503956    2.9729971803    1.1438749414
C        1.2099604012    2.9594807507   -1.3451534944
N       -0.9571307114    4.3815309860   -1.6132009609
N       -1.0118843652    2.1566098108   -0.0324174224
O       -0.9697800153    1.8667255345   -2.5040941586
S       -0.5747107773    2.8899855428   -1.5113023802
H        0.1022247179    3.8190539602    2.7698669515
H        0.7036651569    2.2352279068    2.0591546993
H       -1.5413157664    1.1849740715    2.4186420564
H       -2.1967654074    2.7430533306    3.1165165911
H       -1.6166862543    3.9574316260    0.9675730023
H        1.5622307283    1.9323240667   -1.2546260218
H        1.6010440934    3.4382582404   -2.2431968711
H        1.4556720914    3.5436153328   -0.4583890431
H       -1.9532501413    4.4848713893   -1.8217948385
H       -1.6633571760    1.3901394312   -0.1788538961
18   
torsion grid (-90,)
C       -0.1231802677    2.9704551558    2.2023263666
C       -1.4293766672    2.2523190184    2.4727000802
C       -1.2224198099    2.9612303799    1.1596955990
C        1.2230044078    2.9264684326   -1.2571709567
N       -0.9072234318    4.4019694080   -1.5568434821
N       -1.0337951487    2.1318735861   -0.0074853016
O       -0.9561495375    1.9086160809   -2.4938991574
S       -0.5569016464    2.9007045088   -1.4712847824
H        0.0741564178    3.9033650664    2.7215526118
H        0.7459229576    2.3513343823    2.0035770849
H       -1.4102662525    1.1667868382    2.4592028546
H       -2.1326954247    2.6884951654    3.1753232978
H       -1.7279547695    3.9115648790    0.9972709248
H        1.5493782786    1.8912518928   -1.1629945215
H        1.6454072892    3.4005715253   -2.1433903449
H        1.4591636238    3.5023713298   -0.3627738068
H       -1.8897639364    4.5295287706   -1.8110362848
H       -1.7857928914    1.4743713566   -0.2080279226
18   
torsion grid (-75,)
C       -0.1415223384    3.0362478749    2.0875314198
C       -1.3570442333    2.2011155034    2.4288402114
C       -1.2763943614    2.9078388018    1.0970149658
C        1.2335469091    2.8393127502   -1.2768727217
N       -0.8470407374    4.3890400952   -1.5638406759
N       -1.0628049768    2.0733667482   -0.0631602529
O       -0.9606773470    1.9228477675   -2.5625200218
S       -0.5433038823    2.8759360942   -1.5095340340
H       -0.0094365791    3.9941148782    2.5807507429
H        0.7733362951    2.4981151864    1.8611404447
H       -1.2354226994    1.1225885711    2.4245325396
H       -2.0662844097    2.5825052247    3.1569950334
H       -1.8981632435    3.7908596048    0.9579728334
H        1.5219361909    1.7952658302   -1.1600640598
H        1.6777253056    3.2795499619   -2.1700182723
H        1.4840008049    3.4266180192   -0.3943278078
H       -1.8177666199    4.5532112606   -1.8409731996
H       -1.8686038490    1.5009311366   -0.3172983176
18   
torsion grid (-60,)
C       -0.2417168573    3.1258662687    1.9983020189
C       -1.3261905296    2.1493276762    2.3953661809
C       -1.3902552046    2.8580535505    1.0586965296
C        1.2067233978    2.7395975282   -1.3134864717
N       -0.7716940783    4.4346630873   -1.4875119275
N       -1.1366478465    2.0469733680   -0.1106054297
O       -1.0442177807    2.0388405387   -2.6221353642
S       -0.5657894634    2.9050245263   -1.5201432380
H       -0.2036195907    4.0981380154    2.4786167101
H        0.7224073067    2.7030619059    1.7358417906
H       -1.0749235000    1.0938344467    2.3806124662
H       -2.0446018921    2.4453805553    3.1537225010
H       -2.1433415706    3.6390687097    0.9641860036
H        1.4225280346    1.6774479533   -1.2038910561
H        1.6652119156    3.1489808668   -2.2142431887
H        1.5142453198    3.3066377654   -0.4362277683
H       -1.7315567464    4.6772812763   -1.7438161314
H       -1.9656962306    1.5433923265   -0.4307854029
18   
torsion grid (-45,)
C       -0.4052247836    3.3535138862    1.9426060063
C       -1.2130472983    2.1605739407    2.3953926503
C       -1.4863674230    2.8092541987    1.0488067261
C        1.2742513154    2.6102419106   -1.3635338510
N       -0.5066402838    4.5171184273   -1.2745590372
N       -1.0987238007    2.0571300568   -0.1233615480
O       -1.0660685185    2.2856052175   -2.6354316137
S       -0.4749611429    2.9880292210   -1.4709459343
H       -0.5805995830    4.3207415475    2.4012957967
H        0.6222764901    3.1753557575    1.6451879876
H       -0.7283370866    1.1900472988    2.3765666789
H       -1.9548511352    2.2965060934    3.1766961899
H       -2.4156366473    3.3743286114    0.9849523726
H        1.3717346319    1.5254092445   -1.3869870379
H        1.7501425031    3.0712370985   -2.2297238129
H        1.6720746191    3.0270446577   -0.4395606375
H       -1.4494654142    4.8861805685   -1.4172640390
H       -1.8798873465    1.5386211272   -0.5273674143
18   
torsion grid (-30,)
C       -0.5447539231    3.4635866778    1.8716113589
C       -1.1172902584    2.1660969792    2.3856843387
C       -1.5611449255    2.7276006734    1.0413534662
C        1.2780244918    2.4524519345   -1.3667253082
N       -0.3441004236    4.4880094314   -1.1670360277
N       -1.1273675334    2.0150181184   -0.1430825697
O       -1.0768235161    2.3824383393   -2.6446013922
S       -0.4354446918    2.9747968008   -1.4452713514
H       -0.8567362799    4.4000808592    2.3218890731
H        0.4800382384    3.4645090390    1.5191174386
H       -0.4822405576    1.2869038419    2.3510890399
H       -1.8315962429    2.1949639294    3.2032832806
H       -2.5806113947    3.1102388243    1.0244359142
H        1.2883581268    1.3685036399   -1.4760907116
H        1.7969279441    2.9402198380   -2.1925374667
H        1.7009093054    2.7575660420   -0.4105358866
H       -1.2596064737    4.9348575058   -1.2535483471
H       -1.9072285730    1.5468588606   -0.6058683717
18   
torsion grid (-15,)
C       -0.6226280066    3.5384664227    1.8297192461
C       -0.9852790337    2.1696721322    2.3512692089
C       -1.6017183763    2.6914579598    1.0598140196
C        1.2411487461    2.3808568508   -1.3117439229
N       -0.2749344591    4.4978529318   -1.1344200792
N       -1.2189028876    2.0371847538   -0.1809552165
O       -1.0759458122    2.4580084434   -2.6613961486
S       -0.4391253310    2.9946493602   -1.4340893396
H       -1.0179221819    4.4184531140    2.3272085530
H        0.3622613833    3.6865365617    1.4045839582
H       -0.2487634975    1.3798773939    2.2412470383
H       -1.6259236881    2.0900630353    3.2248395525
H       -2.6598948041    2.9311364371    1.1412243351
H        1.1974498000    1.3006215123   -1.4459377496
H        1.8132367306    2.8585664714   -2.1076786515
H        1.6475818953    2.6407199302   -0.3348791032
H       -1.1629711265    4.9936217037   -1.2394606708
H       -2.0369572553    1.6842214851   -0.6777017068
18   
torsion grid (0,)
C       -1.5657879105    3.5452036264    1.9657853864
C       -0.2202798991    2.8591086399    1.8359411159
C       -1.3880225371    2.4139951608    0.9808271981
C        1.0535733427    1.7023680617   -1.1333774519
N        0.5853831757    4.2685236315   -0.9304116491
N       -1.5144209591    2.6653394555   -0.4552337182
O       -0.6950724620    2.8477383309   -2.7960631391
S       -0.1484467121    3.0122837515   -1.4331167595
H       -2.1709625784    3.3709089465    2.8508157081
H       -1.6403627063    4.5405969247    1.5388613155
H        0.5677029047    3.4394539321    1.3702755475
H        0.0980639774    2.1776735138    2.6200026795
H       -1.8711295060    1.4839425372    1.2682873242
H        0.5885722569    0.7619577468   -1.4322858454
H        1.9171270285    1.9199595977   -1.7627532247
H        1.3346322926    1.6911222046   -0.0817085333
H        0.0249651256    5.1044021799   -1.1110891799
H       -2.0306140662    1.9278009668   -0.9308198617
18   
torsion grid (15,)
C       -1.6630111576    3.4231621639    2.0556823073
C       -0.2200220628    3.0209227441    1.8532331137
C       -1.2973727240    2.4239009560    0.9757464936
C        1.0207346318    1.6537314795   -1.0951311320
N        0.7548230410    4.2487393149   -0.9740289114
N       -1.4673704638    2.8176596072   -0.4186257626
O       -0.6636638842    2.8880040017   -2.7788595509
S       -0.0824758456    3.0396486428   -1.4274145734
H       -2.1942091269    3.0595802189    2.9305351595
H       -1.9527276953    4.4099205548    1.7089278483
H        0.4468378560    3.7477494531    1.4039588782
H        0.2388049009    2.3557553351    2.5792119062
H       -1.6028219860    1.4003103495    1.1835872304
H        0.4801020995    0.7379470823   -1.3381011285
H        1.8821936225    1.7763994402   -1.7523901093
H        1.3268388458    1.6733209478   -0.0503702726
H        0.2543542706    5.1190621032   -1.1686301159
H       -2.0655935742    2.1670707129   -0.9256274268
18   
torsion grid (30,)
C       -1.7363387039    3.3231573391    2.0760146557
C       -0.2493797878    3.1627325527    1.8716285624
C       -1.2121540048    2.4330393384    0.9638253958
C        0.9839067396    1.5675070485   -1.1232281347
N        0.8948349700    4.1730743134   -1.0100852844
N       -1.4059157014    2.8847684376   -0.4023419162
O       -0.6488473298    2.9114604589   -2.7818529159
S       -0.0303263099    3.0220809384   -1.4426332549
H       -2.2031730237    2.8427639434    2.9309003711
H       -2.1840981274    4.2606777274    1.7631837792
H        0.3046215071    3.9872954932    1.4394261129
H        0.3077287192    2.5566229186    2.5798883428
H       -1.3487182014    1.3640568051    1.1251110054
H        0.3812678359    0.6873109035   -1.3516289407
H        1.8407938456    1.6308315633   -1.7945530444
H        1.3085146719    1.5741024116   -0.0835981034
H        0.4521414182    5.0737413772   -1.2072456057
H       -2.0796752867    2.3117721045   -0.9090658734
18   
torsion grid (45,)
C       -1.7999163560    3.2480240814    2.0827526850
C       -0.3034294454    3.2967007117    1.8970069754
C       -1.1447202226    2.4549246209    0.9669486050
C        0.9248732963    1.4875039845   -1.1930460719
N        0.9903877316    4.0884339214   -1.0309864348
N       -1.3598561911    2.9191572568   -0.3858826951
O       -0.6702775569    2.9538406636   -2.7845092902
S       -0.0115307344    3.0029587865   -1.4608308231
H       -2.2054847926    2.6912000759    2.9222609869
H       -2.3709107958    4.1193862584    1.7797083060
H        0.1369544013    4.1920285838    1.4759886598
H        0.3264571633    2.7679889492    2.6058487449
H       -1.1177188284    1.3737480665    1.1073799440
H        0.2682699061    0.6464006155   -1.4199478247
H        1.7671673935    1.5151455455   -1.8848506371
H        1.2769399907    1.4584596858   -0.1625398654
H        0.5991841861    5.0175171822   -1.2035834772
H       -2.1038618338    2.4195201995   -0.8717201072
18   
torsion grid (60,)
C       -1.8586129832    3.1835416580    2.0754273378
C       -0.3760688286    3.4250059761    1.9317750188
C       -1.0768125833    2.4810005423    0.9832150574
C        0.8778462278    1.4145213611   -1.2872815951
N        1.0835084107    3.9971622615   -1.0210750197
N       -1.3016967686    2.9233433660   -0.3708299001
O       -0.6747883322    3.0213261624   -2.7779842653
S        0.0158469207    2.9854221977   -1.4706113197
H       -2.2144828213    2.5785169007    2.9039271239
H       -2.5286640523    3.9748064823    1.7554795993
H       -0.0474067373    4.3698657559    1.5169600677
H        0.2975037825    2.9857733650    2.6608333528
H       -0.8921436488    1.4154185282    1.1275728648
H        0.1694582330    0.6172947523   -1.5167740725
H        1.6961449219    1.4211459825   -2.0078354109
H        1.2657652232    1.3313462344   -0.2725420490
H        0.7416566093    4.9525323898   -1.1480392908
H       -2.1033864263    2.4958070212   -0.8321135743
18   
torsion grid (75,)
C       -1.8942473374    3.1287295249    2.0826589148
C       -0.4542830407    3.5696670338    1.9782012278
C       -0.9897141579    2.5222549437    1.0305404125
C        0.8362086333    1.3460878732   -1.3897376693
N        1.1817955898    3.8943837703   -0.9854702625
N       -1.2296686381    2.9078719336   -0.3357043128
O       -0.6680801750    3.1011456600   -2.7459051565
S        0.0520902255    2.9659900167   -1.4615972780
H       -2.1915636166    2.4941888767    2.9119959227
H       -2.6563687481    3.8161379186    1.7296737170
H       -0.2516469417    4.5453554767    1.5530624580
H        0.2497885190    3.2426173191    2.7366435023
H       -0.6485940920    1.5003211857    1.2025302928
H        0.0804455090    0.6011616155   -1.6422217958
H        1.6354737757    1.3504730377   -2.1314261456
H        1.2463256338    1.1844255053   -0.3932063278
H        0.8870306698    4.8718646740   -1.0399037799
H       -2.0789169387    2.5454360118   -0.7643704350
18   
torsion grid (90,)
C       -1.9086330305    3.0801896022    2.0911308938
C       -0.5379765495    3.7110499075    2.0078060734
C       -0.9076516791    2.5813319382    1.0742393057
C        0.7740035135    1.2873038682   -1.4907998007
N        1.2625171388    3.7890791563   -0.9687352448
N       -1.1690647926    2.8959111052   -0.3049646838
O       -0.6719716066    3.1725461123   -2.7160255146
S        0.0737214817    2.9461770452   -1.4597640230
H       -2.1404577665    2.4296868050    2.9288362043
H       -2.7483713922    3.6537648128    1.7107189173
H       -0.4643819115    4.6977897772    1.5650286205
H        0.1835667007    3.4973091782    2.7898950707
H       -0.4248896438    1.6244897660    1.2755422114
H       -0.0228084215    0.6002801068   -1.7781338186
H        1.5677698379    1.2922972055   -2.2384144215
H        1.1819531153    1.0444804378   -0.5098024404
H        1.0150816804    4.7806705174   -0.9458315873
H       -2.0604908877    2.6076102700   -0.6998876360
18   
torsion grid (105,)
C       -1.9094285161    3.0415534797    2.0870440159
C       -0.6079957646    3.8080854026    2.0061720323
C       -0.8448413710    2.6157142062    1.1049553757
C        0.7498266715    1.2534575509   -1.5960998426
N        1.3309483936    3.6988989351   -0.9296965137
N       -1.1103739281    2.8379098591   -0.2894000103
O       -0.6475936031    3.2514058677   -2.6848079697
S        0.1071356994    2.9291213991   -1.4550591401
H       -2.0924165404    2.3975053797    2.9415931322
H       -2.7964803636    3.5167919062    1.6784550410
H       -0.6316574261    4.7841745860    1.5339097567
H        0.1146471794    3.6960931740    2.8083585345
H       -0.2683768687    1.7231130784    1.3462578343
H       -0.0712758205    0.6167818896   -1.9270005598
H        1.5472469116    1.2759001204   -2.3395523205
H        1.1421422511    0.9333533082   -0.6307668527
H        1.1170211823    4.6932505004   -0.8278483636
H       -2.0371474204    2.6595294972   -0.6625158660
18   
torsion grid (120,)
C       -0.8077576164    1.9572186741    2.6389061171
C       -1.6487232882    3.0608922450    2.0421814409
C       -0.2749093656    2.7655611530    1.4763349586
C        0.9412325822    3.7575116931   -1.6826198085
N       -1.6063549371    3.8876056770   -1.1910345371
N       -0.1168314218    2.1045643960    0.2130201116
O       -0.5926601614    1.6115194103   -2.1657670795
S       -0.5226672729    2.7971032951   -1.2820619869
H       -0.3447599107    2.1082511630    3.6090485341
H       -1.1069079973    0.9329821327    2.4344985551
H       -2.5024610383    2.7693609152    1.4408488958
H       -1.7741212318    3.9852121966    2.5971804888
H        0.5072157957    3.4848335927    1.7131165928
H        1.7799839808    3.0628052947   -1.7250850309
H        0.7669185080    4.2256704482   -2.6519501237
H        1.0897252375    4.5159226931   -0.9138761313
H       -2.5273967734    3.4736282070   -1.0334218512
H       -0.0266482689    1.0957500894    0.1688037149
18   
torsion grid (135,)
C       -0.7644469012    1.9784978475    2.6609201431
C       -1.7382023602    2.9474025878    2.0283204270
C       -0.3177720105    2.8512312498    1.5098933823
C        0.9946315212    3.6862865043   -1.8038035912
N       -1.4817581519    4.0478432405   -1.0994779841
N        0.0000743494    2.2123454799    0.2599493406
O       -0.7346860542    1.6609350207   -2.0649672718
S       -0.5005543013    2.8691993720   -1.2401194488
H       -0.3614800585    2.1982154641    3.6445814027
H       -0.9096522388    0.9201784361    2.4611113110
H       -2.5227832424    2.5229928231    1.4098606117
H       -2.0182727488    3.8444461742    2.5717145128
H        0.3526785926    3.6666912256    1.7690255992
H        1.7717348913    2.9252257340   -1.8713610845
H        0.7776592549    4.1172748255   -2.7818118941
H        1.2615764575    4.4649519156   -1.0897670796
H       -2.4129011080    3.7262276148   -0.8293911639
H       -0.0068991320    1.1974518320    0.2327984433
18   
torsion grid (150,)
C       -0.7281831754    2.0076656350    2.6719200598
C       -1.8337440198    2.7688847721    1.9691305378
C       -0.3899245824    2.9425743485    1.5368862197
C        1.0431417676    3.5970568811   -1.9366612560
N       -1.2804701795    4.3065318217   -0.9867661698
N        0.1205959938    2.3695516676    0.3119880401
O       -0.9493663535    1.8153025062   -1.9247793437
S       -0.4746584324    3.0092394056   -1.1841235673
H       -0.4383316816    2.3069565389    3.6742415896
H       -0.6572973744    0.9389538446    2.4872525435
H       -2.4848658855    2.1973028609    1.3135389873
H       -2.3134199200    3.5934214548    2.4880525642
H        0.0981880271    3.8732505227    1.8081942327
H        1.7177945988    2.7446184621   -2.0157559555
H        0.7816703546    3.9835363241   -2.9224202957
H        1.4649725873    4.3802147211   -1.3082864590
H       -2.2073937147    4.1145801281   -0.6029602677
H        0.0695643185    1.3535986653    0.2752580880
18   
torsion grid (165,)
C       -0.6728723562    2.0346029564    2.6899830636
C       -1.8538958923    2.6625823946    1.9706398411
C       -0.4358272235    2.9382406888    1.5088538031
C        1.0693791569    3.5680190596   -1.9394048387
N       -1.2130793188    4.3870916595   -0.9687228462
N        0.1039369607    2.3544756894    0.2975378192
O       -1.0232164941    1.8973914491   -1.9441805096
S       -0.4761865163    3.0527498217   -1.1917131222
H       -0.4023718253    2.4052633716    3.6737159208
H       -0.5082360600    0.9687871307    2.5553971113
H       -2.4628547753    2.0090930112    1.3515709005
H       -2.3975483595    3.4631018563    2.4639028266
H       -0.0368158746    3.9267668755    1.7091132614
H        1.6953819912    2.6809040919   -2.0344439598
H        0.8268437313    3.9855809590   -2.9172317238
H        1.5356407006    4.3151643319   -1.2987242162
H       -2.1512161138    4.2322031885   -0.5942346276
H       -0.0730403672    1.3521243828    0.2351953144
18   
torsion grid (180,)
C       -0.1072416989    2.6573906793    2.1413639878
C       -1.5600518464    2.3524152638    2.4761684029
C       -1.2224950430    3.0371164452    1.1835955861
C        1.0418989420    3.1733337714   -1.1034871206
N       -1.1582372871    4.4694692844   -1.6407229596
N       -1.4437626831    2.3345390702   -0.0638112785
O       -0.9003764608    1.9347613669   -2.4684015050
S       -0.7160683722    3.0059246343   -1.4675310797
H        0.3991499351    3.4474788887    2.6889145754
H        0.5258818657    1.8155428373    1.8719749618
H       -1.8780628969    1.3144295237    2.4268617025
H       -2.0538955986    2.9333106410    3.2490591467
H       -1.4537575388    4.0927899071    1.0877518087
H        1.4374545785    2.1736268375   -0.9202418262
H        1.5025886783    3.6128829416   -1.9886407300
H        1.1742962967    3.8205234801   -0.2377778897
H       -2.1422404111    4.5155869514   -1.9151987015
H       -1.2408892058    1.3355895371   -0.0289047229
