18   
torsion grid (-165,)
C        2.1756767959    0.6451199325    0.0292997378
C       -0.0180667080    1.1674237400    2.0236172587
C       -0.1712758827    1.7497154465    4.1035526942
C       -1.5298938626    0.6515187434    0.1100666797
C       -0.1343444887    1.1401931010    0.5156452976
N        3.2811341968    0.9982906864    0.1687766898
N       -0.5463948752    2.0735186485    2.7655059280
N        0.7269592520    0.1343889184    2.6985860986
N        0.5285316994    0.4389227937    4.1009774692
N        0.8866209966    0.2898593097   -0.1270956605
O       -0.4420361973    2.3604412840    5.1034171959
H       -1.7045668513   -0.3692735846    0.4671548901
H       -2.2898591249    1.3031731677    0.5448477198
H       -1.6203525580    0.6659032299   -0.9788332160
H        0.0117068287    2.1599129667    0.1524135568
H        1.6776984446    0.4544586905    2.4660698126
H       -0.2974617711   -0.1022640728    4.3834501847
H        0.7273830383   -0.7088950312   -0.0209767804
18   
torsion grid (-150,)
C        2.1813825010    0.5669294116    0.0236449978
C       -0.0108950126    1.1499878430    2.0354243241
C       -0.2310153277    1.7257073221    4.1087932420
C       -1.5225470043    0.6781349071    0.1061037668
C       -0.1158816652    1.1210073790    0.5246662451
N        3.2962846144    0.8952936502    0.1499083789
N       -0.6174322431    2.0145397105    2.7711356486
N        0.7874390371    0.1835837138    2.7173039379
N        0.6401372105    0.5382693379    4.1061681949
N        0.8831644429    0.2434471609   -0.1148367412
O       -0.5950724475    2.2817726780    5.1142836224
H       -1.7284995468   -0.3410003871    0.4513105888
H       -2.2645245066    1.3458502356    0.5469017899
H       -1.6073979559    0.7072232333   -0.9828748334
H        0.0640223091    2.1361643613    0.1628192340
H        1.7359763022    0.4534488775    2.4269332631
H       -0.0179850771   -0.1281765579    4.5206322698
H        0.6966571044   -0.7513995078   -0.0202193956
18   
torsion grid (-135,)
C        2.1615399220    0.5145738673    0.0314708355
C       -0.0280845988    1.1555068915    2.0633169268
C       -0.3168312023    1.6980888226    4.1359772076
C       -1.5357947494    0.7543560950    0.1094720909
C       -0.1183443977    1.1352196924    0.5500833462
N        3.2871268270    0.8124752629    0.1389690901
N       -0.7165032395    1.9585810091    2.8003901259
N        0.8307308025    0.2623187792    2.7475636085
N        0.7081463301    0.6578114647    4.1208967525
N        0.8539057480    0.2259519485   -0.0858531656
O       -0.7611396388    2.1817238256    5.1494869247
H       -1.7834738834   -0.2622367355    0.4341975270
H       -2.2558013431    1.4403721495    0.5579313300
H       -1.6085346762    0.8062581980   -0.9794048227
H        0.1070521635    2.1447338359    0.1963767422
H        1.7753197600    0.4929249788    2.4189289286
H        0.2540893168   -0.0951328331    4.6414773102
H        0.6390438404   -0.7630621026    0.0079701285
18   
torsion grid (-120,)
C        2.1448674637    0.4695721610    0.0146130329
C       -0.0809738554    1.1399838167    2.0228461099
C       -0.4664269116    1.6342956737    4.0931353593
C       -1.5460147012    0.7936010676    0.0209387855
C       -0.1332614058    1.1311817899    0.5067527815
N        3.2749898249    0.7474756377    0.1302751212
N       -0.8626400878    1.8645478962    2.7527943188
N        0.8319282353    0.3337900089    2.7229398869
N        0.6850216405    0.7559018322    4.0789928602
N        0.8341150495    0.2043849026   -0.1113560570
O       -0.9896092273    2.0398709367    5.1057733575
H       -1.8263273895   -0.2223102197    0.3201481168
H       -2.2613393361    1.4868955313    0.4651438897
H       -1.5882216004    0.8672907405   -1.0681952129
H        0.1297136272    2.1372491587    0.1676689103
H        1.7797825231    0.5334599532    2.3889171405
H        0.4436184213   -0.0360735607    4.6744978147
H        0.5982312226   -0.7807439929   -0.0299676918
18   
torsion grid (-105,)
C        2.1338006696    0.4014378486   -0.0024305533
C       -0.0935593035    1.1476945319    1.9936528531
C       -0.5356777719    1.6151739981    4.0624017787
C       -1.5423204463    0.8515392993   -0.0341867105
C       -0.1278123146    1.1354303791    0.4765652907
N        3.2715680804    0.6485334060    0.1103291516
N       -0.9472124276    1.7962842159    2.7199784789
N        0.8757019276    0.4423035588    2.7062770861
N        0.7061696574    0.8907146322    4.0435841736
N        0.8166022366    0.1733333448   -0.1246696846
O       -1.1027229781    1.9628575600    5.0752128232
H       -1.8628853007   -0.1555819048    0.2537339320
H       -2.2407014566    1.5646302242    0.4051616528
H       -1.5642428717    0.9340595269   -1.1231965798
H        0.1805146077    2.1297588934    0.1390722796
H        1.8266732650    0.6023787866    2.3654184814
H        0.6755806534    0.1178103362    4.7058176971
H        0.5502522225   -0.8034382285   -0.0377214503
18   
torsion grid (-90,)
C        2.1187750531    0.3648510760   -0.0096460750
C       -0.1341047132    1.1275132583    1.9515973304
C       -0.6485829052    1.5264454899    4.0233558614
C       -1.5460552997    0.8861672854   -0.1132083783
C       -0.1398299608    1.1350109320    0.4340352283
N        3.2583890331    0.5908738549    0.1277943014
N       -1.0572886166    1.6809637802    2.6767670585
N        0.8782580652    0.5165722997    2.6741072286
N        0.6562667383    0.9456748979    4.0023059857
N        0.8007934538    0.1623594530   -0.1589172135
O       -1.2584088715    1.8054110993    5.0345075384
H       -1.8921080009   -0.1186880559    0.1517051473
H       -2.2421189001    1.6035718724    0.3224431425
H       -1.5411221563    0.9865586953   -1.2008869965
H        0.1974387532    2.1265062739    0.1148317829
H        1.8381084088    0.6480899661    2.3518109805
H        0.8123836571    0.2220900185    4.6993062456
H        0.5143882001   -0.8101228057   -0.0891489766
18   
torsion grid (-75,)
C        2.1015990721    0.3106807343    0.0033371397
C       -0.1389604751    1.1086720836    1.9553995163
C       -0.6824907711    1.4560486962    4.0349407095
C       -1.5511170491    0.9068919552   -0.1158607679
C       -0.1437558260    1.1266570337    0.4379198283
N        3.2438700244    0.5136042929    0.1556716638
N       -1.1016813510    1.5853931112    2.6899546573
N        0.9103054605    0.5840866386    2.6756194213
N        0.6568733817    0.9806978831    3.9996299736
N        0.7813803602    0.1392106277   -0.1583086967
O       -1.3065988917    1.6871261388    5.0515683493
H       -1.9172450033   -0.0923615850    0.1426515073
H       -2.2365968724    1.6331971918    0.3216037034
H       -1.5399135314    1.0137556946   -1.2028844235
H        0.2148080162    2.1127494921    0.1243874003
H        1.8759060077    0.6643530688    2.3595339938
H        0.9656736425    0.3347283512    4.7195892377
H        0.4718708750   -0.8270450303   -0.1019257698
18   
torsion grid (-60,)
C        2.1004416345    0.2746168417    0.0195223580
C       -0.1296928252    1.1217227472    1.9464041175
C       -0.7080172743    1.4169340547    4.0303611623
C       -1.5362512653    0.9535596701   -0.1330101472
C       -0.1290034079    1.1449467633    0.4289600590
N        3.2439094322    0.4512678048    0.1950558577
N       -1.1279099136    1.5223374237    2.6846207733
N        0.9481982159    0.6864781108    2.6695343649
N        0.6545091820    1.0322152531    3.9914028608
N        0.7795487615    0.1383190435   -0.1651057293
O       -1.3470885896    1.6065771227    5.0481232628
H       -1.9252776488   -0.0369793004    0.1249131749
H       -2.2104180577    1.6932627952    0.2993698360
H       -1.5156689918    1.0593674945   -1.2200209385
H        0.2528139415    2.1229183836    0.1169871481
H        1.9186326647    0.7149794843    2.3651486063
H        1.0815512435    0.4794277796    4.7265184323
H        0.4443159562   -0.8199074828   -0.1174211687
18   
torsion grid (-45,)
C        2.0782400999    0.2118368608    0.0526931118
C       -0.1336742170    1.1304714753    1.9428229954
C       -0.7580456879    1.3384194181    4.0282590746
C       -1.5312890753    1.0030608168   -0.1471690243
C       -0.1247404780    1.1541939287    0.4254871801
N        3.2213413789    0.3631898882    0.2530652954
N       -1.1761632710    1.4091230498    2.6817205805
N        0.9797426124    0.8383477369    2.6710903894
N        0.6359344745    1.1007387065    3.9934108396
N        0.7578391817    0.1148954376   -0.1588701220
O       -1.4177898348    1.4539516252    5.0454053081
H       -1.9576159909    0.0310293535    0.1204397860
H       -2.1856482991    1.7700284430    0.2677449993
H       -1.4954170730    1.0942028229   -1.2351296728
H        0.2926409244    2.1165110848    0.1103473976
H        1.9521001493    0.8275810021    2.3778727835
H        1.1544344768    0.6431440483    4.7339914570
H        0.3922673610   -0.8318667502   -0.1000169112
18   
torsion grid (-30,)
C        2.0113664464   -0.0064508342    0.1910904629
C       -0.1035282348    1.1545016770    1.9627072525
C       -0.7388550075    1.0562194140    4.0495765764
C       -1.5015836544    1.0953826393   -0.1340551029
C       -0.0937184853    1.1448736416    0.4474791871
N        3.1527784277    0.0842954955    0.4322328137
N       -1.1748541024    1.0512226476    2.7107925287
N        1.0398934715    1.2879221165    2.6801455534
N        0.6628243922    1.3225748522    4.0216818622
N        0.6967576216   -0.0034498015   -0.0804812549
O       -1.3821976666    0.8890175714    5.0692682263
H       -2.0285179318    0.1954010294    0.1941704648
H       -2.0800190720    1.9523663519    0.2143120978
H       -1.4459192443    1.1101620508   -1.2250043167
H        0.4204759037    2.0448274962    0.0963041457
H        2.0097325218    1.2643727199    2.3854905752
H        1.2797998496    0.8745921001    4.6916061775
H        0.2442404029   -0.9068038790    0.0387336022
18   
torsion grid (-15,)
C        1.9351237263   -0.1095564364    0.1948643908
C       -0.1796806667    1.1499876367    1.8230947253
C       -0.7974508795    0.8695828240    3.8963975171
C       -1.5175137988    1.1048852809   -0.3148106290
C       -0.1288007753    1.1208357298    0.3117406921
N        3.0626456155   -0.0378897127    0.4986008595
N       -1.2172960886    0.8260395989    2.5503331817
N        0.9067248093    1.5212446727    2.5562733758
N        0.5248652104    1.4057105130    3.8968578272
N        0.6380387953   -0.0729817449   -0.1550727040
O       -1.4077317847    0.5503636619    4.8988525159
H       -2.0908689352    0.2413163019    0.0316107605
H       -2.0689497219    1.9998894976   -0.0200233354
H       -1.4284056376    1.0759505378   -1.4032975337
H        0.4325922838    1.9907977833   -0.0408818394
H        1.8827597151    1.4654223508    2.2818678399
H        1.2125840883    1.0366614476    4.5456857732
H        0.1468298535   -0.9530062725   -0.0125413094
18   
torsion grid (0,)
C        1.8889013405   -0.1401133247    0.1643818466
C       -0.1618964442    1.1787569855    1.8000994883
C       -0.6803856036    0.8923135358    3.9007745800
C       -1.5671615010    1.0859427317   -0.2929260345
C       -0.1596868859    1.1134521202    0.2897681272
N        3.0209983688   -0.0700997400    0.4511823480
N       -1.1505278366    0.8130835469    2.5688954747
N        0.9346534331    1.6333277663    2.4842300632
N        0.6042064695    1.4900182271    3.8368211592
N        0.5871477647   -0.0985358236   -0.1669939659
O       -1.2401310642    0.5577370955    4.9275152831
H       -2.1335601850    0.2375098508    0.0992904303
H       -2.1039752153    1.9939867957   -0.0107019794
H       -1.5128747509    1.0219774309   -1.3822455624
H        0.3949223119    1.9703696856   -0.1026049846
H        1.8960339138    1.4860445138    2.1844253335
H        1.3396561264    1.2406438369    4.4882723425
H        0.0896597543   -0.9694566668    0.0069748679
18   
torsion grid (15,)
C        1.9255940015   -0.1430130253    0.2189948345
C       -0.1628282194    1.2291533729    1.7482565791
C       -0.7500906198    0.9381395626    3.8333898736
C       -1.4823608001    1.1443948897   -0.3996073823
C       -0.0994218673    1.1506958028    0.2401704745
N        3.0438225069   -0.0911095623    0.5590204455
N       -1.1694294275    0.8470400018    2.4810429559
N        0.9059829399    1.7095974374    2.4697019315
N        0.5239102519    1.5368120185    3.8031039664
N        0.6417656105   -0.0796320949   -0.1740397805
O       -1.3509358085    0.6103102640    4.8394780708
H       -2.0807037638    0.3111615765   -0.0224821732
H       -2.0118488285    2.0659395344   -0.1487517087
H       -1.3854012420    1.0678931744   -1.4851672755
H        0.4872978089    1.9933433744   -0.1359468902
H        1.8695380584    1.4970774670    2.2130604565
H        1.2276405611    1.4321202077    4.5228942166
H        0.1196630067   -0.9384330020   -0.0119086410
18   
torsion grid (30,)
C        1.9161439707   -0.1341499261    0.1715381852
C       -0.1634741278    1.2020083812    1.7698957200
C       -0.7326067370    0.9151571688    3.8642172243
C       -1.5132476462    1.1330791071   -0.3585084268
C       -0.1211002044    1.1377385336    0.2607531925
N        3.0444636315   -0.0710556616    0.4743213201
N       -1.1641901339    0.8281791735    2.5140232217
N        0.9241382692    1.6553321030    2.4831186535
N        0.5676350165    1.4314611174    3.8103655637
N        0.6190758305   -0.0851901542   -0.1781019353
O       -1.3434083368    0.6312494146    4.8788720333
H       -2.1036401192    0.2945333097    0.0192795715
H       -2.0419796074    2.0505326245   -0.0915791964
H       -1.4312550717    1.0663890676   -1.4458843874
H        0.4572187995    1.9860786762   -0.1156647342
H        1.8832954700    1.4503539504    2.2036632905
H        1.2341882242    1.5138692177    4.5656399505
H        0.1127341509   -0.9494824602    0.0041939199
18   
torsion grid (45,)
C        1.9909688928   -0.0939066448    0.1135376853
C       -0.1222426927    1.1359974665    1.7942626637
C       -0.7388491389    0.8368902876    3.8736663661
C       -1.4624632977    1.1375663658   -0.3397338491
C       -0.0719585067    1.1334780432    0.2831747855
N        3.1247508954   -0.0248053299    0.3938789226
N       -1.1526977437    0.7961310321    2.5185294832
N        0.9783445103    1.4815632930    2.5344638292
N        0.6235810071    1.1728375668    3.8436474764
N        0.6871566536   -0.0549362464   -0.2086202889
O       -1.3937261150    0.6301370312    4.8798429518
H       -2.0389383201    0.2692926416   -0.0107266232
H       -2.0093280082    2.0285473435   -0.0248300372
H       -1.3757432234    1.1311048951   -1.4287419456
H        0.4937665294    2.0064517237   -0.0551020958
H        1.9450311620    1.3473841139    2.2444788876
H        1.2028964094    1.4665542609    4.6190707353
H        0.1991814290   -0.9370488807   -0.0681071655
18   
torsion grid (60,)
C        1.9873898715   -0.1042431056    0.1046210175
C       -0.1185693668    1.1352744940    1.7935967630
C       -0.7280195802    0.8169301678    3.8665771060
C       -1.4549312592    1.1584512176   -0.3436579309
C       -0.0661608623    1.1366472273    0.2828547391
N        3.1244655472   -0.0394939082    0.3718046974
N       -1.1414530825    0.7660338719    2.5122680468
N        0.9765725869    1.5027012978    2.5358368430
N        0.6455799886    1.1380266442    3.8432464659
N        0.6802939713   -0.0607439822   -0.2059539448
O       -1.3855065535    0.6242471460    4.8721378617
H       -2.0430097884    0.2975141279   -0.0161389577
H       -1.9910750140    2.0568661614   -0.0308900370
H       -1.3651994362    1.1506427369   -1.4323808645
H        0.5117712865    2.0029289751   -0.0516331170
H        1.9393417979    1.3550586969    2.2365495110
H        1.1353424721    1.5872675521    4.6080503606
H        0.1888154349   -0.9382618237   -0.0490761856
18   
torsion grid (75,)
C        1.9878687557   -0.1175983636    0.1063081721
C       -0.1036006898    1.1275625935    1.8050553758
C       -0.6905439169    0.7550397549    3.8690841677
C       -1.4410123004    1.1855720365   -0.3318783880
C       -0.0523869511    1.1437852352    0.2941438194
N        3.1262552827   -0.0685692219    0.3707355848
N       -1.1084419603    0.7050302489    2.5156486054
N        0.9823961027    1.5366005699    2.5487962500
N        0.6809900298    1.1141603445    3.8544891109
N        0.6804993714   -0.0582864303   -0.2022127466
O       -1.3415885122    0.5378447314    4.8719534434
H       -2.0386511621    0.3293829153   -0.0093547736
H       -1.9663722756    2.0888379848   -0.0142797306
H       -1.3517090687    1.1833993778   -1.4206758720
H        0.5352698239    2.0066452279   -0.0317971050
H        1.9335576264    1.3462736673    2.2315951423
H        1.0643911167    1.6764657633    4.6073149683
H        0.1799131131   -0.9311370452   -0.0477592381
18   
torsion grid (90,)
C        1.9865567402   -0.1395416069    0.1075842723
C       -0.0905392098    1.1192945700    1.8024368694
C       -0.6483631909    0.6812505279    3.8552884966
C       -1.4241811419    1.2089749410   -0.3364011333
C       -0.0369975464    1.1461335808    0.2916658096
N        3.1246410647   -0.1058978798    0.3749823378
N       -1.0653193940    0.6221606320    2.5017549836
N        0.9746808101    1.5944072798    2.5497341161
N        0.7055915101    1.1295468969    3.8564868025
N        0.6805930041   -0.0638092094   -0.2065141689
O       -1.2867938472    0.4162166145    4.8527350183
H       -2.0335562122    0.3600236040   -0.0168042234
H       -1.9369334965    2.1195223730   -0.0182590162
H       -1.3334745904    1.2084289359   -1.4251015292
H        0.5626493893    2.0030882680   -0.0274386639
H        1.9131132776    1.3647121487    2.2151674126
H        0.9459589814    1.7896784491    4.5910790495
H        0.1689662146   -0.9297911359   -0.0486218817
18   
torsion grid (105,)
C        1.9804352870   -0.1832705308    0.0992387614
C       -0.0655618126    1.1248283242    1.7788041855
C       -0.5945835512    0.6437637254    3.8241660661
C       -1.3965273092    1.2434826504   -0.3598892671
C       -0.0104878690    1.1498316987    0.2678299270
N        3.1170230401   -0.1763821094    0.3741764274
N       -1.0075384762    0.5647309714    2.4702753268
N        0.9783381708    1.6663858159    2.5257012367
N        0.7313251121    1.1943660674    3.8422458871
N        0.6782521940   -0.0779766751   -0.2254667459
O       -1.2176136796    0.3341280791    4.8163826712
H       -2.0248208987    0.4097114232   -0.0369031835
H       -1.8870361231    2.1677809692   -0.0456759151
H       -1.3067575073    1.2371185324   -1.4486649808
H        0.6085431296    1.9925894080   -0.0515555766
H        1.8999719659    1.3820260121    2.1806696358
H        0.8071033364    1.9329964868    4.5387285376
H        0.1456574085   -0.9299235996   -0.0596096061
18   
torsion grid (120,)
C        1.9606525897   -0.2158757371    0.1288085542
C       -0.0545154182    1.1659714661    1.7691939728
C       -0.5682548153    0.6740980206    3.8122073438
C       -1.3730921038    1.2950778254   -0.3756075236
C        0.0086045802    1.1729907531    0.2579008268
N        3.0923645251   -0.2388990627    0.4217845642
N       -0.9705009875    0.5653195540    2.4565764740
N        0.9704303846    1.7665668514    2.5134596374
N        0.7214441459    1.3286721749    3.8489107999
N        0.6663645084   -0.0778300136   -0.2174035140
O       -1.1783332415    0.3296876684    4.7986821274
H       -2.0225360385    0.4803911573   -0.0456055768
H       -1.8408824827    2.2354469756   -0.0742246393
H       -1.2803460769    1.2744118042   -1.4639779034
H        0.6497405915    1.9966387408   -0.0672022884
H        1.8714713809    1.4082635231    2.1773056034
H        0.6197736036    2.1270035417    4.4752088251
H        0.1084201553   -0.9118295173   -0.0429696605
18   
torsion grid (135,)
C        1.9264225131   -0.2757009035    0.1322490845
C       -0.0369053373    1.1352330118    1.7820003894
C       -0.4859268113    0.5764335455    3.8214214462
C       -1.3762861063    1.3107710783   -0.3438779999
C        0.0116904771    1.1544186121    0.2701344567
N        3.0548124116   -0.3262399254    0.4336334505
N       -0.8896497371    0.4496076595    2.4669177767
N        0.9539778207    1.8160129266    2.5213518763
N        0.7224339984    1.3933560878    3.8719145884
N        0.6376123473   -0.1041104144   -0.2235147329
O       -1.0457783031    0.1483119836    4.8025924507
H       -2.0368345920    0.5054521857   -0.0124647692
H       -1.8203895449    2.2584245592   -0.0292142704
H       -1.2987700588    1.2981776237   -1.4336079312
H        0.6636248839    1.9697876700   -0.0540197220
H        1.8428755864    1.4190436831    2.1901583971
H        0.4136954820    2.1978624552    4.4210503793
H        0.0602114976   -0.9254767700   -0.0513279669
18   
torsion grid (150,)
C        1.8988788922   -0.3302875913    0.1218193457
C       -0.0116561441    1.1189013066    1.7741735463
C       -0.3948451049    0.5030192299    3.8111061313
C       -1.3619322591    1.3445543335   -0.3365265272
C        0.0282528983    1.1466628745    0.2624824749
N        3.0222195669   -0.4124543286    0.4340198134
N       -0.7960976093    0.3563696460    2.4551478225
N        0.9352125141    1.8796727334    2.5134777617
N        0.6937043908    1.4926269015    3.8798636927
N        0.6173342712   -0.1224824788   -0.2452808658
O       -0.8852413576   -0.0178285412    4.7813435356
H       -2.0394647615    0.5534895646   -0.0044338488
H       -1.7773728035    2.3021259024   -0.0123843607
H       -1.2957486104    1.3373596613   -1.4270892405
H        0.6961844486    1.9498985657   -0.0591411679
H        1.8182674067    1.4445023776    2.2103966366
H        0.1721135914    2.2552199255    4.3218819191
H        0.0188017721   -0.9281150782   -0.0695430403
18   
torsion grid (165,)
C        1.8583376047   -0.3888468019    0.1325447094
C       -0.0223089629    1.0906321150    1.7757125894
C       -0.3904506798    0.4280589920    3.8040002021
C       -1.3517711465    1.3784655755   -0.3376741114
C        0.0307147947    1.1369774868    0.2649749683
N        2.9708050796   -0.5122215476    0.4687592919
N       -0.7791695796    0.2877961113    2.4388478309
N        0.9023347552    1.8785656841    2.5361766489
N        0.5912658853    1.5382564712    3.9074980728
N        0.5917148286   -0.1367043439   -0.2590546607
O       -0.8313350647   -0.1678069514    4.7513646464
H       -2.0485724252    0.5960137690   -0.0250203928
H       -1.7474109168    2.3390749074    0.0020223671
H       -1.2797351153    1.3908374583   -1.4278437679
H        0.7183506924    1.9305391361   -0.0384052583
H        1.7642306346    1.3708087517    2.2833230190
H       -0.0996782325    2.2329582605    4.2156852235
H       -0.0322734862   -0.9280388926   -0.1088027134
18   
torsion grid (180,)
C        1.8187769514   -0.4711262592    0.0890972654
C        0.0043278970    1.0835921742    1.7709814488
C       -0.2864328555    0.4268595854    3.8168936049
C       -1.3274304712    1.4202260502   -0.3258457255
C        0.0510546733    1.1142634388    0.2610544954
N        2.9364918110   -0.6371898628    0.3862197810
N       -0.6521178884    0.2101681322    2.4485279056
N        0.8387515415    1.9957264235    2.5233910924
N        0.4702769351    1.7153200973    3.9035432245
N        0.5482785979   -0.1807409474   -0.2663931209
O       -0.6062920468   -0.2367070837    4.7644303969
H       -2.0528060122    0.6627973195   -0.0155260594
H       -1.6797507420    2.3936869693    0.0253171078
H       -1.2648594518    1.4391158351   -1.4164566839
H        0.7667160342    1.8799207693   -0.0493241051
H        1.7129038530    1.4728573118    2.3499664963
H       -0.4001204673    2.2491814949    4.0416725157
H       -0.0936251490   -0.9484783571   -0.0739245641
