14   
torsion grid (-165,)
C       -0.7670334497    1.7486586963    4.0615791492
C       -2.9498282324   -2.7570510885    3.0274300833
C       -1.5018520498   -1.1013322796    2.1460181701
N       -1.4167934272    0.9864897210    3.2624288775
N       -1.2916315804   -0.3692896414    3.3954053352
O       -1.6990692199   -2.4698830195    2.4000251146
H       -0.9225491290    2.8208868402    3.9764433330
H       -0.0767034665    1.3766938193    4.8296292107
H       -2.9870883351   -3.8393792551    3.1665780662
H       -3.7871063982   -2.4441568085    2.3873576593
H       -3.0359702225   -2.2552138224    3.9976131386
H       -2.3616813526   -0.6330781775    1.6501206704
H       -0.6298591290   -1.0514752719    1.4810030720
H       -0.4508957764   -0.6794833561    3.8914833693
14   
torsion grid (-150,)
C       -0.8687724511    1.7158845534    4.0956885147
C       -2.9805153592   -2.6853249931    3.0507379871
C       -1.4314071462   -1.1546792428    2.1184845950
N       -1.4793906972    0.9070728273    3.3106082071
N       -1.1558491559   -0.4183635937    3.3462174920
O       -1.7330943581   -2.5054862818    2.3804749704
H       -1.1803597453    2.7568148828    4.0893930159
H       -0.0631656865    1.4117678478    4.7760842184
H       -3.1042325235   -3.7603257980    3.1968134560
H       -3.8109000648   -2.3036550294    2.4391099863
H       -2.9897541726   -2.1762773804    4.0211314812
H       -2.2589840106   -0.6285225685    1.6263420535
H       -0.5655432055   -1.1814645264    1.4454555160
H       -0.2560931926   -0.6450543410    3.7765737556
14   
torsion grid (-135,)
C       -0.9730091044    1.6577171549    4.1404789893
C       -2.9967133265   -2.5962597150    3.0862698537
C       -1.3673731479   -1.2053928182    2.0761543097
N       -1.5278206745    0.8191560408    3.3441148839
N       -1.0310454811   -0.4447497670    3.2654564892
O       -1.7631331988   -2.5282462722    2.3733666052
H       -1.4155730658    2.6467925384    4.2177822833
H       -0.0890615283    1.4268791854    4.7481742997
H       -3.2015825513   -3.6551237607    3.2571680641
H       -3.8152540366   -2.1577501240    2.4967525529
H       -2.9318841502   -2.0731035326    4.0473558898
H       -2.1619237118   -0.6447234236    1.5682353287
H       -0.5077339258   -1.3148049600    1.4057612176
H       -0.0959538659   -0.5980041900    3.6460444821
14   
torsion grid (-120,)
C       -1.0708363774    1.5820910785    4.1897565457
C       -3.0004506422   -2.4994741694    3.1277773799
C       -1.3133903640   -1.2502581494    2.0279598623
N       -1.5635898930    0.7343447431    3.3616846062
N       -0.9216759038   -0.4410415456    3.1577648553
O       -1.7820182573   -2.5371527583    2.3885413042
H       -1.6228640977    2.5028438904    4.3541812890
H       -0.1340701523    1.4230006767    4.7380955738
H       -3.2748085611   -3.5362103848    3.3336888446
H       -3.8005015944   -2.0195845435    2.5451405617
H       -2.8786801708   -1.9571401117    4.0729975043
H       -2.0812438817   -0.6827389429    1.4876308857
H       -0.4602887825   -1.4412441252    1.3697298137
H        0.0263569093   -0.5450493016    3.5181662229
14   
torsion grid (-105,)
C       -1.1893434206    1.4329824563    4.2456886414
C       -2.9269362901   -2.3399527546    3.2247625904
C       -1.2757021201   -1.2567790056    1.8999940746
N       -1.5111467901    0.7423293148    3.2124815110
N       -0.7532553705   -0.3291545450    2.8717160634
O       -1.7362813897   -2.4823960452    2.4512367990
H       -1.7940226103    2.3056226425    4.4747341713
H       -0.3373719735    1.1956384067    4.8945562486
H       -3.2039833483   -3.3405694413    3.5632691145
H       -3.7433802681   -1.9211996493    2.6195285176
H       -2.7709431791   -1.6917402939    4.0961170367
H       -2.0648252271   -0.7264765541    1.3543132839
H       -0.4813854613   -1.5575601890    1.2112357843
H       -0.0894843199   -0.6983579860    3.5534814126
14   
torsion grid (-90,)
C       -1.2464171242    1.3376445814    4.2781937811
C       -2.9371552305   -2.2537453295    3.2547056103
C       -1.2391761367   -1.2823751402    1.8870720656
N       -1.5662326854    0.6647271640    3.2345669598
N       -0.6945993197   -0.2738486824    2.7635503097
O       -1.7227259508   -2.4528709966    2.5319716004
H       -1.9337367132    2.1114508346    4.6084603063
H       -0.3188084805    1.1803038786    4.8425770970
H       -3.2535951489   -3.2367267954    3.6107163405
H       -3.7184766286   -1.8327321687    2.6065974097
H       -2.7978406902   -1.5837506015    4.1111836948
H       -2.0240473947   -0.7965558056    1.2956399617
H       -0.4424789077   -1.6413154821    1.2312584792
H        0.0172286422   -0.6078191003    3.4166216329
14   
torsion grid (-75,)
C       -1.2472940276    1.2704832258    4.3219282690
C       -2.9774995060   -2.2097676621    3.2550648843
C       -1.2158019040   -1.2997391922    1.9061348516
N       -1.6080960891    0.5974703021    3.2934512715
N       -0.6800206147   -0.1956275897    2.6700698024
O       -1.6977183748   -2.4062501723    2.6545345376
H       -1.9780712163    1.9371374423    4.7717932687
H       -0.2438565758    1.2148074224    4.7626874805
H       -3.2905325896   -3.1826128881    3.6416281810
H       -3.7113762194   -1.8610589091    2.5151237282
H       -2.9385725245   -1.4843278372    4.0744173931
H       -2.0066201282   -0.8937963834    1.2637009845
H       -0.4048687676   -1.6986321563    1.2927870106
H        0.1222667688   -0.4556992461    3.2497935861
14   
torsion grid (-60,)
C       -1.1961846458    1.2265418000    4.3796677389
C       -3.0377750328   -2.2010266261    3.2237695030
C       -1.2087296027   -1.3052861997    1.9488817910
N       -1.6231523103    0.5487628706    3.3817454369
N       -0.7058912549   -0.1068069122    2.5953341712
O       -1.6798899155   -2.3331486329    2.8034500971
H       -1.9217756403    1.7880943933    4.9624017300
H       -0.1390723627    1.2747592344    4.6712109199
H       -3.3025988174   -3.1436312862    3.7089287812
H       -3.7016709198   -2.0422231944    2.3621545158
H       -3.1686465562   -1.3715692259    3.9251769240
H       -2.0042404733   -0.9994897299    1.2575794742
H       -0.3754384247   -1.7295652456    1.3838950408
H        0.1870041874   -0.2730248891    3.0689191252
14   
torsion grid (-45,)
C       -1.1251355725    1.2035860637    4.4387805907
C       -3.0971704364   -2.2062691470    3.1748625302
C       -1.2098265465   -1.3121615424    1.9956803396
N       -1.6214497623    0.4922272883    3.4993006598
N       -0.7684332041   -0.0395604684    2.5609954162
O       -1.6948847729   -2.2709915315    2.9145817273
H       -1.8111561823    1.6679934983    5.1424777595
H       -0.0477093025    1.3720256850    4.5668993899
H       -3.3369135926   -3.0823198715    3.7821584907
H       -3.6714546082   -2.2543095903    2.2383286293
H       -3.3651835758   -1.2925567642    3.7132670331
H       -1.9851180886   -1.1007743831    1.2472350436
H       -0.3392666060   -1.7451088388    1.4965041322
H        0.1956404819   -0.0993940419    2.9020435069
14   
torsion grid (-30,)
C       -1.0666469564    1.1991112492    4.4837119962
C       -3.1437419559   -2.2093870021    3.1315084948
C       -1.2049544372   -1.3374821369    2.0365528523
N       -1.6037459371    0.4124749418    3.6303034347
N       -0.8506479223   -0.0076690881    2.5625406019
O       -1.7256755801   -2.2545342776    2.9684409605
H       -1.6866014600    1.5703190914    5.2956211351
H       -0.0170778099    1.5188993226    4.4365107365
H       -3.4041241478   -3.0504041520    3.7782919891
H       -3.6516070585   -2.3335098922    2.1640553468
H       -3.4615886107   -1.2702134437    3.5932799213
H       -1.9289826836   -1.2027255238    1.2205384025
H       -0.2863220343   -1.7628156726    1.6233792884
H        0.1536548248    0.0603229403    2.7483800891
14   
torsion grid (-15,)
C       -1.0199154286    1.1979305272    4.5157029307
C       -3.1793141176   -2.2007713909    3.0975360794
C       -1.1903573068   -1.3778840681    2.0739533868
N       -1.5604058322    0.3195499035    3.7571001986
N       -0.9372359852   -0.0083434565    2.5856923309
O       -1.7565866503   -2.2732243286    2.9893522673
H       -1.5563824688    1.4908560946    5.4142209796
H       -0.0511963157    1.6700939847    4.3042298181
H       -3.4820415745   -3.0423430612    3.7246701632
H       -3.6499315598   -2.3040642801    2.1090330233
H       -3.4928988905   -1.2603292702    3.5595110292
H       -1.8377826951   -1.3015309626    1.1877237068
H       -0.2250259392   -1.7913475591    1.7660835701
H        0.0610129958    0.2137942236    2.5883057653
14   
torsion grid (0,)
C       -0.9796829582    1.1933051409    4.5385525828
C       -3.2054303092   -2.1828787436    3.0668425706
C       -1.1670495444   -1.4229369322    2.1119659597
N       -1.4878063205    0.2228521914    3.8724787489
N       -1.0172140854   -0.0337630610    2.6225936527
O       -1.7832631714   -2.3088545976    2.9938048035
H       -1.4104017537    1.4202526549    5.5098896121
H       -0.1437958714    1.8068892444    4.1771506235
H       -3.5582826341   -3.0298598018    3.6591928567
H       -3.6512548075   -2.2356520340    2.0630040861
H       -3.4927489210   -1.2457689250    3.5519831549
H       -1.7227923344   -1.3789130822    1.1623686708
H       -0.1670976179   -1.8263403648    1.9147388241
H       -0.0912414397    0.3540546668    2.4285491028
14   
torsion grid (15,)
C       -1.0729343772    1.0868081487    4.5515319987
C       -3.1541503713   -1.9781244330    3.0369853084
C       -0.9874026811   -1.5705330158    2.1605595581
N       -0.9286160759   -0.1003037795    4.0904164943
N       -0.6765499126   -0.2554961941    2.7597242328
O       -1.8018127400   -2.4149507827    2.9231356980
H       -1.2303656645    1.1970779714    5.6210279286
H       -1.0369762800    1.9909437253    3.9287634082
H       -3.6987985661   -2.7784319574    3.5421134079
H       -3.5998806445   -1.8115216469    2.0443032134
H       -3.2319841535   -1.0607963892    3.6309562314
H       -1.4168237641   -1.3681539388    1.1662246790
H       -0.0581802134   -2.1342499891    2.0344041457
H       -0.9835863246    0.5301186372    2.1829689445
14   
torsion grid (30,)
C       -1.0353392125    1.0465801316    4.5608817631
C       -3.1618140130   -1.9306898313    3.0015491590
C       -0.9602013569   -1.5766012512    2.1887688207
N       -0.7482219094   -0.0988543647    4.0677743552
N       -0.7048340435   -0.2271757393    2.7046706162
O       -1.8142861902   -2.3882439142    2.9581178011
H       -1.0167701597    1.1519525611    5.6424473109
H       -1.2907253085    1.9246367610    3.9515314259
H       -3.7364176007   -2.6937600819    3.5305428781
H       -3.5754413023   -1.8097386374    1.9881868755
H       -3.2500816643   -0.9808134635    3.5435477475
H       -1.3269898490   -1.4458901871    1.1594702307
H       -0.0189501839   -2.1319914657    2.1646162858
H       -1.2379889749    0.4929758389    2.2110099794
14   
torsion grid (45,)
C       -0.9645214620    1.0363126638    4.5713970836
C       -3.1865518794   -1.9169682592    2.9478930218
C       -0.9479038834   -1.5723434868    2.2276223612
N       -0.5918580856   -0.0565658934    4.0219463129
N       -0.7667719019   -0.1975855196    2.6676432796
O       -1.8376286478   -2.3633329637    2.9920093008
H       -0.7708405729    1.1628841892    5.6334031415
H       -1.4605020772    1.8519578081    4.0271813655
H       -3.7842082311   -2.6638533944    3.4745142961
H       -3.5506474438   -1.8345374127    1.9116728371
H       -3.3126183654   -0.9479800563    3.4499544017
H       -1.2567956686   -1.5201138239    1.1733628431
H        0.0090571204   -2.0927244627    2.3030436400
H       -1.4562706701    0.4472369678    2.2714713643
14   
torsion grid (60,)
C       -0.8356004597    1.0883350763    4.5845872725
C       -3.2370765323   -1.9696614632    2.8598821556
C       -0.9636641245   -1.5566065085    2.2872328027
N       -0.4718599551    0.0175690322    3.9869660796
N       -0.8644201615   -0.1709680446    2.6865910743
O       -1.8811609626   -2.3593707901    3.0165362308
H       -0.4696559863    1.2552795397    5.5942290164
H       -1.4871702724    1.8469920833    4.1301541894
H       -3.8443930544   -2.7278039875    3.3587485653
H       -3.5251303504   -1.9238266846    1.7976323141
H       -3.4423334285   -0.9955372249    3.3265226147
H       -1.2157715348   -1.5588379128    1.2168870577
H        0.0077636111   -2.0273831668    2.4425068052
H       -1.6475885575    0.4142064077    2.3846390709
14   
torsion grid (75,)
C        0.4979520238    1.3232623108    3.0452137471
C       -1.5937896906   -3.4855686107    2.8186973490
C       -1.3217622875   -1.3767049213    1.7885186689
N        0.2507553897    0.2854712616    2.3399581324
N       -1.0584497434    0.0099657004    2.0216866902
O       -1.3540432098   -2.1009678842    3.0182110005
H        1.5393362520    1.5645919801    3.2414486082
H       -0.2796577647    1.9806763096    3.4550526141
H       -1.6091265635   -3.9543296477    3.8048554497
H       -0.7996286523   -3.9488747619    2.2139737156
H       -2.5609720290   -3.6634449906    2.3227640897
H       -2.2945881350   -1.4678199468    1.2823807811
H       -0.5319957295   -1.7657313110    1.1336665783
H       -1.7492998712    0.4478762655    2.6366620086
14   
torsion grid (90,)
C        0.5087418602    1.4158428585    2.9717334969
C       -1.6640779665   -3.5291349656    2.7851131805
C       -1.2673119222   -1.3980944510    1.8406256696
N        0.2494661361    0.3608266274    2.2941703339
N       -1.0589299262   -0.0166885327    2.1472302622
O       -1.4055295229   -2.1570822410    3.0431535558
H        1.5460835048    1.7336598148    3.0321173476
H       -0.2553420312    2.0147890754    3.4830026788
H       -1.7743201089   -4.0226009377    3.7529805827
H       -0.8352246409   -3.9996025690    2.2352650137
H       -2.5908847711   -3.6647050896    2.2059185973
H       -2.1902979324   -1.5046994882    1.2494579703
H       -0.4120524443   -1.7415547506    1.2468820423
H       -1.7155902453    0.3574464032    2.8354387021
14   
torsion grid (105,)
C        0.5005075643    1.5153234291    2.8951281721
C       -1.7398189603   -3.5696194112    2.7446977806
C       -1.1991552828   -1.4275525623    1.9025156770
N        0.2443924043    0.4326961650    2.2579433902
N       -1.0258617674   -0.0583435684    2.2838478864
O       -1.4332332274   -2.2205914509    3.0662532215
H        1.5088435485    1.9132430323    2.8244993166
H       -0.2401574226    2.0594848786    3.4939933770
H       -1.9311480695   -4.0876841756    3.6866408606
H       -0.9024700796   -4.0620455035    2.2282259468
H       -2.6351294369   -3.6394326925    2.1076665660
H       -2.0716122255   -1.5299482871    1.2364786525
H       -0.2959035235   -1.7408494652    1.3659390452
H       -1.6445235326    0.2637213656    3.0292595409
14   
torsion grid (120,)
C       -0.3713464137    1.3779291978    4.4880464288
C       -3.3830979174   -2.2787827077    2.5162993273
C       -1.1436326613   -1.5067010486    2.5791592908
N       -0.3862772903    0.1488877166    4.1260257409
N       -1.4038305237   -0.2877801815    3.3255926776
O       -2.0378324623   -2.5622954533    2.8716372282
H        0.4255471085    1.6969848243    5.1540234141
H       -1.1199333715    2.1158143680    4.1719455027
H       -3.9594672050   -3.1876685509    2.7013639266
H       -3.4675079976   -2.0123991965    1.4501032401
H       -3.7969605222   -1.4633640641    3.1241674458
H       -1.1828559081   -1.2899632756    1.4985569353
H       -0.1500006666   -1.8620956680    2.8499125913
H       -1.9008659377    0.4438203956    2.8162814998
14   
torsion grid (135,)
C       -0.3291960819    1.4193942886    4.4110691859
C       -3.3911667672   -2.2669662726    2.4498935207
C       -1.1480544912   -1.5300090226    2.6531117240
N       -0.3063851086    0.1832302787    4.0745187228
N       -1.4116905556   -0.3556958351    3.4750872078
O       -2.0679342715   -2.5803544204    2.8589481010
H        0.5393384453    1.8165054677    4.9291817241
H       -1.1772170719    2.0886410479    4.2163489146
H       -3.9767907282   -3.1849326819    2.5333100405
H       -3.4154882149   -1.9214006635    1.4038044824
H       -3.8431590936   -1.4999263519    3.0934607764
H       -1.1431035332   -1.2589505334    1.5827383624
H       -0.1671042717   -1.9073656051    2.9391159298
H       -2.0401100245    0.3302166600    3.0525265569
14   
torsion grid (150,)
C        0.3853330330    1.7034152336    2.6355142150
C       -1.9132897363   -3.6454341090    2.5702597929
C       -0.9881292198   -1.5112265466    2.2223958949
N        0.3294282014    0.4495874960    2.3721124804
N       -0.6677203339   -0.2943276300    2.9253793302
O       -1.4527673121   -2.4482384190    3.1782709790
H        1.2211787811    2.2666814395    2.2302962838
H       -0.3521339344    2.2278629783    3.2561197516
H       -2.2586680295   -4.2978926477    3.3746473175
H       -1.1086086528   -4.1530099069    2.0172682276
H       -2.7480338633   -3.4549457562    1.8781475888
H       -1.7684058696   -1.3643856986    1.4512941809
H       -0.0685048534   -1.8494562428    1.7281925564
H       -1.4749482213    0.2197715632    3.2831908345
14   
torsion grid (165,)
C       -0.5838240698    1.7492081399    4.0390581801
C       -2.8566634067   -2.8503649864    3.0195637123
C       -1.6505841560   -1.0015749785    2.1489791903
N       -1.2314790716    1.0973976604    3.1477375401
N       -1.5483478355   -0.2161957155    3.3924685287
O       -1.6320794610   -2.3714611645    2.4583322393
H       -0.3819193014    2.8007193736    3.8513997652
H       -0.2336900520    1.3061736476    4.9804616341
H       -2.7246356303   -3.9209923125    3.1882196620
H       -3.6914267480   -2.6933463617    2.3225789327
H       -3.0884568771   -2.3539229714    3.9690654078
H       -2.5678561240   -0.7020902855    1.6251590620
H       -0.7875788843   -0.8279589302    1.4950294153
H       -0.8995201513   -0.6832047591    4.0350619793
14   
torsion grid (180,)
C       -0.6711295364    1.7579984749    4.0428747091
C       -2.9073764296   -2.8112426266    3.0182657164
C       -1.5763112433   -1.0488974690    2.1549591697
N       -1.3339431303    1.0515973058    3.2052184166
N       -1.4261533568   -0.3007286684    3.4096500821
O       -1.6654782848   -2.4239174087    2.4261541986
H       -0.6528766813    2.8347251128    3.8952798524
H       -0.1348627195    1.3358801453    4.9026859687
H       -2.8593302524   -3.8924415046    3.1626775915
H       -3.7474230146   -2.5711843735    2.3514861109
H       -3.0654891231   -2.3156298365    3.9826714921
H       -2.4657919159   -0.6574054188    1.6444031036
H       -0.7035572911   -0.9321026141    1.4995505515
H       -0.6683387896   -0.6942647624    3.9772382860
