20   
torsion grid (-165,)
C        2.5540219298   -0.8402847245   -0.3286975329
C        3.5501183770   -0.8562924302    0.6521055866
C        1.2075909746   -0.9989621210    0.0255018182
C        3.2082957700   -1.0350599018    1.9967711165
C        0.8528794773   -1.1789405876    1.3628663836
C        1.8630847702   -1.1996989780    2.3288198791
C        0.2086879008   -3.4878155634    5.2321550563
N        0.9686616150   -3.0603281633    4.0381737308
O        2.6169045760   -1.1989655155    4.8618107358
O        0.1782681882   -0.6771261322    4.3404620772
S        1.4105081230   -1.4148024114    4.0495753380
H        2.8246265227   -0.6988419009   -1.3717251444
H        4.5920943343   -0.7237889308    0.3745830484
H        0.4361306393   -0.9785010179   -0.7391912614
H        3.9603652301   -1.0349285474    2.7794528036
H       -0.1845844327   -1.2954460710    1.6599293630
H       -0.6937535798   -2.8801312103    5.3038095961
H       -0.0817313983   -4.5296560986    5.0774792733
H        0.7785319979   -3.4027181467    6.1651348028
H        1.8244652691   -3.6060378674    3.9267696180
20   
torsion grid (-150,)
C        2.4979731155   -0.8340174521   -0.3236101602
C        3.5238355109   -0.8430646856    0.6258687660
C        1.1649282196   -1.0066586740    0.0723292110
C        3.2246495948   -1.0291993730    1.9797243991
C        0.8535257659   -1.1946197419    1.4193016746
C        1.8926496395   -1.2081688619    2.3538922220
C        0.1215971747   -3.4924827465    5.1448739736
N        1.1119742751   -3.0924541556    4.1245600617
O        2.7219359098   -1.1846846112    4.8588503444
O        0.2493572555   -0.7279334565    4.3929731363
S        1.4963183791   -1.4351964013    4.0880815474
H        2.7344800976   -0.6866113740   -1.3740538578
H        4.5555579229   -0.6993427249    0.3172169809
H        0.3696374675   -0.9906343992   -0.6676935256
H        4.0009968121   -1.0230804538    2.7381653474
H       -0.1739021739   -1.3197795758    1.7463760338
H       -0.7905447969   -2.9162592653    4.9912674932
H       -0.0978657146   -4.5509131002    4.9844332289
H        0.4696343488   -3.3441640952    6.1740173664
H        1.9861192383   -3.6101559398    4.2154293615
20   
torsion grid (-135,)
C        2.4510005163   -0.8616810678   -0.3021651022
C        3.4971670112   -0.9393700923    0.6226561088
C        1.1205793887   -0.9392874176    0.1280935866
C        3.2203653515   -1.1023199802    1.9834884819
C        0.8308672292   -1.1036554010    1.4839014272
C        1.8888335806   -1.1891921358    2.3921516898
C        0.1153958234   -3.5464700070    5.0224847861
N        1.2828217955   -3.0917929031    4.2431598003
O        2.7352266529   -1.0688252392    4.8861026535
O        0.2270216499   -0.7854196273    4.4168184380
S        1.5213733324   -1.4124224352    4.1343224321
H        2.6709693335   -0.7319207524   -1.3585029623
H        4.5282633541   -0.8659180657    0.2881510772
H        0.3094728713   -0.8658283901   -0.5910451238
H        4.0158322901   -1.1430572601    2.7207439424
H       -0.1942533505   -1.1481482508    1.8379644072
H       -0.7860398790   -3.0961612589    4.6074231621
H        0.0524626147   -4.6313030606    4.9052053246
H        0.1763945014   -3.2958205906    6.0876937279
H        2.1560771216   -3.5043991780    4.5682241105
20   
torsion grid (-120,)
C        2.3927971357   -0.9120493241   -0.3014536833
C        3.4560072497   -1.0429883552    0.5992262783
C        1.0727911279   -0.8987180133    0.1626415416
C        3.2050004654   -1.1706972525    1.9675760457
C        0.8081983043   -1.0249941888    1.5289174337
C        1.8810482305   -1.1669330187    2.4111838735
C        0.1667406156   -3.5798602931    4.8639616283
N        1.4400210440   -3.0387304797    4.3554934061
O        2.7493965638   -0.9286729273    4.8910472052
O        0.2223211070   -0.7862149718    4.4322266461
S        1.5468729046   -1.3543554008    4.1644688586
H        2.5937106768   -0.8105712811   -1.3646567499
H        4.4807019481   -1.0387273525    0.2380297171
H        0.2495391910   -0.7821940972   -0.5367620411
H        4.0164704263   -1.2521875584    2.6837266526
H       -0.2073027672   -0.9937272561    1.9108645062
H       -0.6397484769   -3.3025238723    4.1842683770
H        0.2570138681   -4.6691357262    4.8664190376
H       -0.0862998269   -3.2278147767    5.8696875336
H        2.2453096016   -3.3269364319    4.9089253668
20   
torsion grid (-105,)
C        2.3308031272   -0.9625544416   -0.2546957124
C        3.4021195924   -1.1673332506    0.6240069457
C        1.0269438090   -0.8467502568    0.2370520949
C        3.1734629260   -1.2662864093    1.9974948069
C        0.7847234300   -0.9413588299    1.6111390179
C        1.8633143191   -1.1572515162    2.4701923130
C        0.2407206537   -3.6221348195    4.6784590051
N        1.5519193814   -2.9838310806    4.4711088919
O        2.7490928239   -0.8199790293    4.9427652144
O        0.2199807517   -0.7655111814    4.4974884867
S        1.5590389273   -1.3019683183    4.2320924583
H        2.5151423514   -0.8849302638   -1.3229109846
H        4.4154557798   -1.2444972180    0.2397606661
H        0.1990747541   -0.6746837301   -0.4452168735
H        3.9924442009   -1.4094107574    2.6952617158
H       -0.2157242956   -0.8310703875    2.0172948307
H       -0.3639170610   -3.5050566497    3.7766784058
H        0.4192057048   -4.6895821641    4.8303879384
H       -0.3125314342   -3.2123936011    5.5294713908
H        2.2133691304   -3.1698986595    5.2240610667
20   
torsion grid (-90,)
C        2.2612945776   -1.0133641424   -0.2223548650
C        3.3229118828   -1.3122271066    0.6422037916
C        0.9829050561   -0.7684091155    0.2870698366
C        3.1085751919   -1.3723987008    2.0195280994
C        0.7553214293   -0.8239392625    1.6664240659
C        1.8226297360   -1.1306568128    2.5110371926
C        0.3687718979   -3.6230320702    4.4681073804
N        1.6335515760   -2.8762423216    4.5686188298
O        2.7034131472   -0.6459987699    4.9793793159
O        0.1841088975   -0.7085821863    4.5335720545
S        1.5419651676   -1.2060930001    4.2805426818
H        2.4345153409   -0.9669279395   -1.2942587725
H        4.3167170588   -1.4943573967    0.2427293241
H        0.1635818472   -0.5281676584   -0.3847835025
H        3.9199283178   -1.5940330529    2.7056765260
H       -0.2238083929   -0.6218377066    2.0888088214
H        0.0041897705   -3.5691028304    3.4391872016
H        0.5848149442   -4.6700793068    4.6939879851
H       -0.4094752542   -3.2487948954    5.1412312481
H        2.1017785516   -2.9889722790    5.4679717821
20   
torsion grid (-75,)
C        2.1866779717   -1.0772679068   -0.1572908050
C        3.2330723201   -1.4390833502    0.7016376738
C        0.9350240128   -0.7302423888    0.3598128305
C        3.0303390401   -1.4568553686    2.0820536872
C        0.7189025576   -0.7451947484    1.7418695882
C        1.7707437379   -1.1130767103    2.5813885228
C        0.5063302044   -3.6074935531    4.2962646694
N        1.6541939659   -2.7740030144    4.6871608244
O        2.6506686580   -0.5000981456    5.0406305776
O        0.1434722184   -0.6393107918    4.5965138180
S        1.5119014608   -1.1181271884    4.3559144001
H        2.3504965522   -1.0636052176   -1.2315901592
H        4.2056642892   -1.7029008696    0.2956597387
H        0.1276269242   -0.4445886946   -0.3086648531
H        3.8294020126   -1.7285531018    2.7646712091
H       -0.2398922121   -0.4728849627    2.1712830115
H        0.3786810308   -3.5472619700    3.2125613044
H        0.7447496579   -4.6432318541    4.5495393149
H       -0.4294246866   -3.3120213813    4.7838360445
H        1.9152254892   -2.8629469754    5.6695946694
20   
torsion grid (-60,)
C        2.1094848283   -1.1412125219   -0.1275556937
C        3.1732927597   -1.4995116380    0.7105716661
C        0.8809134930   -0.7511991105    0.4150458047
C        3.0111111185   -1.4711311650    2.0966634988
C        0.7044921476   -0.7217302885    1.8020239023
C        1.7729058886   -1.0888717045    2.6208088782
C        0.6371156411   -3.5571973352    4.1412618207
N        1.6510024752   -2.6935500025    4.7660588696
O        2.7357905466   -0.4404180700    5.0504154939
O        0.2231308392   -0.5006080771    4.6625538839
S        1.5672949937   -1.0387754376    4.4016319994
H        2.2413989372   -1.1626457497   -1.2061058826
H        4.1280948246   -1.7948779965    0.2846264610
H        0.0606957777   -0.4673374976   -0.2384034685
H        3.8247420779   -1.7364841686    2.7646133430
H       -0.2358044474   -0.4188935873    2.2512743076
H        0.7593697035   -3.5237348462    3.0570087586
H        0.8272347019   -4.5815745347    4.4701603507
H       -0.3920801790   -3.2771389230    4.3974627471
H        1.7067176669   -2.7826500044    5.7808508616
20   
torsion grid (-45,)
C        2.0545107230   -1.1888439360   -0.0930369156
C        3.1467217317   -1.5121633413    0.7218042554
C        0.8353621756   -0.8045087657    0.4755641516
C        3.0220367935   -1.4566979587    2.1114680676
C        0.6961818645   -0.7489941228    1.8654392141
C        1.7921611643   -1.0847087322    2.6613220163
C        0.7057801167   -3.5305062641    4.0197164695
N        1.5707999325   -2.6645650894    4.8366975457
O        2.8584578521   -0.4927389905    5.0562379110
O        0.3432523772   -0.3600574427    4.7361394147
S        1.6328669090   -1.0081105671    4.4448432821
H        2.1569124695   -1.2302049572   -1.1741930475
H        4.0947229979   -1.7993427646    0.2756134110
H       -0.0057323571   -0.5440615903   -0.1608628057
H        3.8590670845   -1.6889584704    2.7628291602
H       -0.2347068174   -0.4460030455    2.3338054677
H        1.1026827692   -3.5871672724    3.0056954387
H        0.7469547790   -4.5320796056    4.4546264119
H       -0.3411394596   -3.2016345047    3.9821918998
H        1.3840155525   -2.7298485280    5.8375144973
20   
torsion grid (-30,)
C        2.0180766145   -1.2087911196   -0.0836228175
C        3.1386497507   -1.5106283609    0.6997470023
C        0.8126915017   -0.8312259526    0.5187001729
C        3.0564101483   -1.4430883452    2.0924310441
C        0.7158422963   -0.7637852771    1.9112220563
C        1.8395857032   -1.0807943220    2.6761694247
C        0.8049481622   -3.5241562273    3.9510170241
N        1.5026750584   -2.6357474314    4.8962374288
O        3.0211116889   -0.5792593778    5.0148764475
O        0.5146097435   -0.2355553938    4.8038223801
S        1.7313623575   -0.9921696881    4.4627201352
H        2.0876107353   -1.2589331669   -1.1670008437
H        4.0762822405   -1.7895237075    0.2271974492
H       -0.0495533764   -0.5835317630   -0.0940570523
H        3.9167405765   -1.6537957955    2.7203468225
H       -0.2023133955   -0.4594255310    2.4036062963
H        1.4171897147   -3.6679684698    3.0607025814
H        0.6982120182   -4.4925975183    4.4464282896
H       -0.1904881154   -3.1700018808    3.6513401700
H        1.0503922303   -2.6198504600    5.8110842054
20   
torsion grid (-15,)
C        1.9852807027   -1.2142490406   -0.0878211489
C        3.1207684533   -1.5018718595    0.6787806329
C        0.7871029759   -0.8430423481    0.5329390873
C        3.0618671774   -1.4279776183    2.0725997484
C        0.7138853358   -0.7688679130    1.9263326505
C        1.8528543795   -1.0719927306    2.6753092945
C        0.8780308083   -3.5360214182    3.9390245050
N        1.3775342819   -2.5819231563    4.9442902929
O        3.1111849779   -0.6776122015    4.9657855120
O        0.6335730614   -0.1203590884    4.8416273901
S        1.7705541087   -0.9759233266    4.4641777770
H        2.0374278318   -1.2691503603   -1.1719307566
H        4.0531961789   -1.7742239006    0.1923161437
H       -0.0871018367   -0.6044892191   -0.0663577469
H        3.9344431335   -1.6251401747    2.6876590739
H       -0.1980371996   -0.4635142232    2.4301322604
H        1.6551089152   -3.7380629681    3.2012446485
H        0.6678166654   -4.4692475171    4.4682426597
H       -0.0321709802   -3.2105310533    3.4185101055
H        0.7059061695   -2.4664710875    5.7040212127
20   
torsion grid (0,)
C        1.9382336382   -1.2033149246   -0.0726258208
C        3.0747943437   -1.5088377184    0.6851215061
C        0.7464125993   -0.8291202603    0.5585834310
C        3.0244781571   -1.4499875481    2.0801541036
C        0.6821615033   -0.7699578942    1.9530742260
C        1.8226934273   -1.0891873941    2.6938126467
C        0.9502108899   -3.6118073560    3.9452886086
N        1.2189170272   -2.5851346031    4.9665453121
O        3.1127316803   -0.8364796811    4.9650262011
O        0.6753322449   -0.0969444578    4.8968222883
S        1.7434462750   -1.0202332889    4.4863323109
H        1.9844860763   -1.2467094322   -1.1575118356
H        4.0024443409   -1.7835667686    0.1908387000
H       -0.1290694578   -0.5765493312   -0.0330751334
H        3.8984124866   -1.6606691452    2.6885607675
H       -0.2252265891   -0.4610996860    2.4633990911
H        1.8688716911   -3.8473787251    3.4056989483
H        0.6360745298   -4.5134836623    4.4776213066
H        0.1745403781   -3.3345057808    3.2203547180
H        0.3900848830   -2.4141468078    5.5360428889
20   
torsion grid (15,)
C        1.9056791179   -1.1787019104   -0.0647065487
C        3.0346097743   -1.5162541079    0.6903922828
C        0.7228377205   -0.7824316010    0.5702123838
C        2.9859856478   -1.4670022469    2.0861138165
C        0.6616188797   -0.7319186138    1.9650917906
C        1.7944205670   -1.0823464279    2.7044336875
C        1.0132247578   -3.6482377423    3.9922851052
N        1.0554280175   -2.5471593041    4.9678121296
O        3.0936743970   -0.9854871171    4.9708065488
O        0.7184564237   -0.0433803385    4.9284559518
S        1.7102888376   -1.0376465665    4.5001079742
H        1.9505277341   -1.2152291759   -1.1498959710
H        3.9555561732   -1.8090903474    0.1938899705
H       -0.1471546392   -0.5058245922   -0.0188423032
H        3.8542828092   -1.7044128983    2.6925128818
H       -0.2393133088   -0.4055796555    2.4763060217
H        2.0273677027   -3.8885920338    3.6671865167
H        0.6148601107   -4.5240951655    4.5109589411
H        0.3974732596   -3.4386417816    3.1088976617
H        0.1261143029   -2.3367399225    5.3305767958
20   
torsion grid (30,)
C        1.8630138198   -1.1520931105   -0.0987696798
C        2.9954544889   -1.5342760091    0.6288155934
C        0.7107172243   -0.7153893615    0.5655166026
C        2.9811927251   -1.4896802273    2.0257215008
C        0.6843020817   -0.6683771419    1.9614753426
C        1.8202861337   -1.0629921608    2.6738105490
C        1.1987188998   -3.6727156256    4.0712670265
N        1.0307676431   -2.4969403495    4.9384308361
O        3.1639663595   -1.0966337318    4.9155507390
O        0.8515906046    0.0097477899    4.9250268699
S        1.7716371918   -1.0384650468    4.4728149486
H        1.8810126636   -1.1857159064   -1.1848271612
H        3.8929239962   -1.8596557009    0.1100397462
H       -0.1620689200   -0.4044023938   -0.0019051065
H        3.8534116437   -1.7639706563    2.6104476148
H       -0.1922244848   -0.3101941795    2.4935167236
H        2.2641419234   -3.8813942085    3.9530232536
H        0.7472562077   -4.5267775915    4.5822536447
H        0.7437723397   -3.5592204910    3.0794616092
H        0.0496331517   -2.2821536479    5.1121999199
20   
torsion grid (45,)
C        1.8379678921   -1.1042400270   -0.1233286835
C        2.9495392715   -1.5586638358    0.5942515156
C        0.7126090873   -0.6168763120    0.5522756872
C        2.9403417448   -1.5356457054    1.9920156597
C        0.6912782440   -0.5899701971    1.9486518158
C        1.8063118140   -1.0563582245    2.6512164016
C        1.3306682198   -3.7267178309    4.1882729372
N        0.9530458303   -2.4889030553    4.8849643763
O        3.1430050624   -1.2135439609    4.9014638467
O        0.8868697683    0.0149524666    4.9098199373
S        1.7593063365   -1.0678122648    4.4512197276
H        1.8512593794   -1.1209831335   -1.2098423905
H        3.8267682094   -1.9243854523    0.0677417412
H       -0.1431871536   -0.2496831346   -0.0074031503
H        3.7980751900   -1.8663271124    2.5689302563
H       -0.1627806508   -0.1913645039    2.4884401263
H        2.4046569348   -3.8825635941    4.3079672266
H        0.8136164538   -4.5563598196    4.6762832654
H        1.0822309415   -3.7214161101    3.1193227385
H       -0.0487019621   -2.3034050782    4.8668128324
20   
torsion grid (60,)
C        1.8261186820   -1.0445166795   -0.1493897527
C        2.8980211609   -1.6049698187    0.5532295068
C        0.7457326789   -0.4823247408    0.5413902914
C        2.8923465178   -1.6138696256    1.9512510119
C        0.7280401241   -0.4866662978    1.9380371669
C        1.8014409654   -1.0602702425    2.6262545202
C        1.4941496386   -3.8071130874    4.3472636847
N        0.9286625526   -2.5355879304    4.8146447230
O        3.1289910914   -1.3042779759    4.8890325185
O        0.8935162376   -0.0328392938    4.8903503972
S        1.7545303796   -1.1201333299    4.4245939322
H        1.8366112989   -1.0358223933   -1.2360212090
H        3.7423523021   -2.0272840923    0.0153709145
H       -0.0772416572   -0.0318578847   -0.0066240218
H        3.7250085745   -2.0215493822    2.5156542326
H       -0.0885565171   -0.0320506288    2.4909855928
H        2.5264373322   -3.8748110151    4.6938469237
H        0.9246516080   -4.6179923215    4.8076495026
H        1.4673583300   -3.9221000476    3.2552099380
H       -0.0640288222   -2.4154435676    4.6221943508
20   
torsion grid (75,)
C        2.0740414031   -1.0506744317   -0.3211465529
C        3.2187904385   -1.4318326723    0.3850515250
C        0.8933196332   -0.7306203507    0.3622843609
C        3.1904162352   -1.4987969032    1.7820953193
C        0.8526669234   -0.7925508215    1.7556683826
C        2.0046861555   -1.1815035707    2.4452903401
C        1.4165802721   -3.8773160743    4.2191451467
N        0.8796108876   -2.5316715969    4.4748386304
O        3.3138859860   -1.5951547203    4.6925736712
O        1.2701533273   -0.0723609574    4.7750439006
S        1.9606372042   -1.2474940021    4.2368703905
H        2.1003621702   -0.9993115221   -1.4064165702
H        4.1343295026   -1.6737678985   -0.1474951257
H        0.0076477778   -0.4298541106   -0.1904115116
H        4.0661272805   -1.7838012578    2.3563343442
H       -0.0504176816   -0.5433572701    2.3039561579
H        1.7090973901   -3.9472511424    3.1684784189
H        2.2785267415   -4.1266811446    4.8480870846
H        0.6118703616   -4.5958427919    4.3922630020
H        0.4763732049   -2.4165690576    5.4051052266
20   
torsion grid (90,)
C        2.0479012594   -0.9540669132   -0.3781468126
C        3.1640430325   -1.4345426943    0.3125940152
C        0.8887893626   -0.5865718119    0.3184555978
C        3.1287802013   -1.5547148147    1.7061040870
C        0.8401120522   -0.7030936157    1.7079131422
C        1.9634214951   -1.1910763438    2.3815297741
C        1.4961227656   -3.9918104137    4.4043165467
N        0.8619040002   -2.6637415155    4.3649472313
O        3.2611517911   -1.6748285886    4.6252794446
O        1.1709735299   -0.2016804853    4.7261606008
S        1.9067907316   -1.3408061477    4.1675839116
H        2.0803489982   -0.8601779810   -1.4604056741
H        4.0645458280   -1.7105756434   -0.2289562068
H        0.0258774924   -0.2064199221   -0.2212295180
H        3.9870798185   -1.9100070115    2.2673935328
H       -0.0457575338   -0.4157175651    2.2654635770
H        1.9682593744   -4.1897641075    3.4387138991
H        2.2479713030   -4.0891074672    5.1943055395
H        0.7049473158   -4.7313204357    4.5498403655
H        0.2918518156   -2.4611505827    5.1864004558
20   
torsion grid (105,)
C        2.0478612766   -0.8878943973   -0.4581677337
C        3.1086981045   -1.4889607907    0.2263934187
C        0.9281902909   -0.4218829157    0.2424959233
C        3.0540906359   -1.6338293176    1.6162772757
C        0.8602400943   -0.5629648692    1.6295969544
C        1.9251842204   -1.1740901866    2.2960855964
C        1.5690024408   -4.0129263827    4.6197475517
N        0.8772689405   -2.7674580061    4.2455006182
O        3.1931585211   -1.6564196185    4.5595170791
O        1.0239458817   -0.2822191291    4.6206440849
S        1.8370191391   -1.3759478815    4.0763266697
H        2.0957899221   -0.7740299876   -1.5379031310
H        3.9821267013   -1.8377528810   -0.3176018165
H        0.1110993005    0.0558662179   -0.2909528821
H        3.8758303885   -2.0757354458    2.1707877045
H        0.0079158371   -0.1942249552    2.1914271111
H        2.2617582347   -4.2937930489    3.8236964002
H        2.1246646068   -3.9360100730    5.5597004222
H        0.8098564477   -4.7950357046    4.6996942762
H        0.1218942536   -2.5196676478    4.8835272395
20   
torsion grid (120,)
C        2.0315766337   -0.8139435857   -0.5113420911
C        3.0533520120   -1.5099142304    0.1440810952
C        0.9559071285   -0.2905355823    0.2151319880
C        3.0008951625   -1.6939666212    1.5282903778
C        0.8911783527   -0.4681443719    1.5993120473
C        1.9139040848   -1.1752699131    2.2346545339
C        1.6253065008   -4.0093966595    4.8156228677
N        0.9552023207   -2.8803184677    4.1456856919
O        3.1894302639   -1.6761614384    4.4936102447
O        0.9717118762   -0.3748499690    4.5653815449
S        1.8280394223   -1.4295997202    4.0091247749
H        2.0783092301   -0.6708343270   -1.5876322856
H        3.8949076655   -1.9026867009   -0.4198331092
H        0.1709462009    0.2618333446   -0.2939901849
H        3.7949607244   -2.2106884466    2.0579754460
H        0.0762340008   -0.0519292692    2.1829459038
H        2.5393077202   -4.2580906322    4.2751870255
H        1.8807989444   -3.8069393137    5.8611747542
H        0.9478796828   -4.8654032119    4.7606539649
H        0.0546788827   -2.6475105093    4.5612667538
20   
torsion grid (135,)
C        2.0118956608   -0.7399026049   -0.5186203897
C        2.9966557775   -1.5191909197    0.1011625117
C        0.9762853847   -0.1802265278    0.2364011833
C        2.9451750042   -1.7493654153    1.4772149364
C        0.9142935420   -0.4018485307    1.6155587354
C        1.8979746327   -1.1905113373    2.2138219322
C        1.6629009430   -4.0023056774    4.9814090436
N        1.0714026838   -3.0169502344    4.0561234739
O        3.1882393362   -1.6736111529    4.4778692870
O        0.9063210883   -0.4996260673    4.5568642746
S        1.8212015301   -1.4935428520    3.9808296016
H        2.0576854136   -0.5623563801   -1.5898122035
H        3.8071832578   -1.9421921313   -0.4858347523
H        0.2206177863    0.4347401115   -0.2444649270
H        3.7091298248   -2.3359871656    1.9776773081
H        0.1320717119    0.0406046114    2.2241100507
H        2.7120281536   -4.1461783638    4.7239887588
H        1.5955424513   -3.7079027517    6.0349769433
H        1.1314022965   -4.9453602958    4.8306389170
H        0.0794105423   -2.8616654212    4.2302028007
20   
torsion grid (150,)
C        1.9929542496   -0.6916186846   -0.5437556446
C        2.9317695165   -1.5534635544    0.0388449162
C        1.0086863198   -0.0848643384    0.2417678273
C        2.8859194492   -1.8159217581    1.4084043959
C        0.9528536588   -0.3386588706    1.6163939441
C        1.8905105021   -1.2062077929    2.1770491233
C        1.6703036915   -3.9492597679    5.1045798999
N        1.2291756770   -3.1183580348    3.9656986473
O        3.2052164898   -1.6156089451    4.4560560278
O        0.8571118093   -0.6055163035    4.5296147767
S        1.8361056931   -1.5294555961    3.9402649497
H        2.0342211925   -0.4897442820   -1.6108307476
H        3.7004869518   -2.0167402075   -0.5733830762
H        0.2878962784    0.5905084596   -0.2106711541
H        3.6107636086   -2.4726409974    1.8791264080
H        0.2092904375    0.1333984086    2.2506169008
H        2.7596043639   -3.9809027429    5.1127715135
H        1.3154998538   -3.5838910047    6.0755967372
H        1.2886129132   -4.9589732246    4.9345137140
H        0.2126403383   -3.0622305991    3.9032868767
20   
torsion grid (165,)
C        1.9388351400   -0.6596698874   -0.5586214704
C        2.8984993319   -1.5242528978   -0.0153269519
C        0.9721912723   -0.0685206160    0.2602462273
C        2.8925415394   -1.8047632398    1.3513777158
C        0.9552771953   -0.3407697794    1.6322583085
C        1.9139240891   -1.2104423177    2.1533859824
C        1.5988775049   -3.8840015451    5.1790263188
N        1.3824994161   -3.1720768439    3.9008878142
O        3.2879589954   -1.5910077168    4.4168463271
O        0.9135260100   -0.6750105543    4.5397144568
S        1.9127669398   -1.5527271412    3.9125727500
H        1.9494417642   -0.4436093076   -1.6236601754
H        3.6516482091   -1.9752450153   -0.6553993513
H        0.2355121290    0.6079669717   -0.1639995761
H        3.6312708401   -2.4650899627    1.7946144710
H        0.2260523449    0.1161259242    2.2937907652
H        2.6645412342   -3.8671621186    5.4089719358
H        1.0397335775   -3.4526584342    6.0178588279
H        1.2885062386   -4.9208782200    5.0301495531
H        0.3948227891   -3.1671162642    3.6417252541
20   
torsion grid (180,)
C        1.8927769736   -0.6547621426   -0.5498036131
C        2.8940398713   -1.4953517862   -0.0462035813
C        0.9364933029   -0.0999783923    0.3064879226
C        2.9414958224   -1.7876779485    1.3176706677
C        0.9716270510   -0.3859430481    1.6751383347
C        1.9718528241   -1.2316007727    2.1571221590
C        1.4814334058   -3.8421506423    5.2193033010
N        1.5346621762   -3.2297261942    3.8728646921
O        3.4190587846   -1.6089749088    4.3859497737
O        1.0347990588   -0.7519188073    4.5841445187
S        2.0339298541   -1.5958948503    3.9103632471
H        1.8623852633   -0.4284104158   -1.6123402726
H        3.6389065978   -1.9178787568   -0.7147108372
H        0.1673931074    0.5588508421   -0.0868514106
H        3.7142351041   -2.4281551925    1.7310749773
H        0.2507720440    0.0422645165    2.3645136116
H        2.4792565407   -3.8005670011    5.6587168394
H        0.7665623655   -3.3511504591    5.8896973984
H        1.2032198956   -4.8906992955    5.0910184907
H        0.6114021859   -3.2468452131    3.4350245316
