21   
torsion grid (-165,)
C        2.3855790739   -1.3183868510   -2.1636996432
C        1.2607888302   -0.4992486457   -2.0747227522
C        1.5158703190   -0.4305969417    0.3389130737
C        2.6408901860   -1.2729588710    0.2701119053
C        3.0517587691   -1.6929159244   -1.0003758048
C        0.8374789151   -0.0613776954   -0.8155204517
C        3.3139649239   -1.6221074178    1.5731116896
C        4.5313171571   -3.3477472864    3.0446884765
C        5.5708133859   -2.6401563198    2.2373553839
C        4.1604776429   -2.8410398931    1.6603546548
O        3.1456970201   -0.8863476635    2.5424526304
F        4.1558345505   -2.4689111618   -1.1457130736
Br      -0.7028559958    1.0716507280   -0.6895653212
H        2.7563104842   -1.6649340043   -3.1232726081
H        0.7268242129   -0.2022941807   -2.9712836049
H        1.2024261058   -0.0821686870    1.3169667450
H        4.6057756383   -4.4249876351    3.1571456879
H        4.0913354770   -2.8102113729    3.8777959668
H        5.8250753328   -1.6246249867    2.5232738807
H        6.3677018382   -3.2131278824    1.7739141244
H        4.0719205426   -3.5663395346    0.8624541459
21   
torsion grid (-150,)
C        2.1515550363   -1.3543251602   -2.1918346322
C        0.9936638264   -0.5890379247   -2.0580111625
C        1.3835519128   -0.4382754188    0.3337731511
C        2.5425510405   -1.2281469488    0.2212373135
C        2.9007983680   -1.6622867020   -1.0601191491
C        0.6220054473   -0.1359954207   -0.7880349126
C        3.3015145002   -1.5109675416    1.4929916447
C        4.3072817119   -3.3426431064    2.9831151437
C        5.4549325423   -2.5999554815    2.3847238477
C        4.1490951805   -2.7273031974    1.5931417071
O        3.1675253694   -0.7451127034    2.4445871730
F        4.0349794870   -2.3843078637   -1.2498546487
Br      -0.9635473625    0.9241473998   -0.6012862798
H        2.4844044633   -1.7087732156   -3.1623420367
H        0.3949012078   -0.3442686737   -2.9290187124
H        1.1098761361   -0.0767120321    1.3189210932
H        4.3483881100   -4.4266706412    3.0243157983
H        3.7550919413   -2.8540738097    3.7788827920
H        5.6699810639   -1.6109336044    2.7758209405
H        6.3052748547   -3.1559124828    2.0026325375
H        4.1552722444   -3.4047432079    0.7506265024
21   
torsion grid (-135,)
C        1.7851754336   -2.1279919623   -2.2282911283
C        0.8826439231   -1.0654503180   -2.2601248443
C        1.4369942084   -0.5392211204    0.0447342079
C        2.3677030341   -1.5933113040    0.0875943163
C        2.5108669094   -2.3722737559   -1.0661206308
C        0.7177172474   -0.2793614284   -1.1150436697
C        3.1050295707   -1.8037757400    1.3851338545
C        4.6675856602   -3.5471737429    2.4413841980
C        5.3497346224   -2.2240834507    2.5678017070
C        4.4345337271   -2.4679371386    1.3751774237
O        2.5962171029   -1.4002828655    2.4280260554
F        3.3559066205   -3.4346523231   -1.0768867721
Br      -0.5288165172    1.1756615196   -1.1521392793
H        1.9279670286   -2.7726684305   -3.0898699537
H        0.3128292771   -0.8574192641   -3.1596413507
H        1.3010077746    0.0555046306    0.9414288484
H        5.2421750335   -4.4143604646    2.1316947345
H        3.8291684038   -3.7454086458    3.1011651749
H        4.9738641719   -1.5360101886    3.3174719325
H        6.4119273070   -2.1635273995    2.3518602588
H        4.8989864121   -2.6358326193    0.4126905493
21   
torsion grid (-120,)
C        1.7464323114   -1.9369239742   -2.0214368601
C        0.8453860950   -0.8729667979   -2.0089122253
C        1.5386148416   -0.3272789935    0.2523417063
C        2.4667460568   -1.3847491544    0.2519248228
C        2.5399086922   -2.1732571380   -0.9023922072
C        0.7510408236   -0.0754668466   -0.8635932213
C        3.2768183740   -1.5865100598    1.5070634966
C        4.6286381647   -3.6127601737    2.3050820174
C        5.4319804055   -2.4014132387    2.6703357369
C        4.5536054701   -2.3466160530    1.4382509001
O        2.8541197857   -1.1304086052    2.5660446856
F        3.3832167380   -3.2347348311   -0.9587117754
Br      -0.4909545908    1.3837071783   -0.8393760230
H        1.8376104458   -2.5885388425   -2.8848303217
H        0.2233130761   -0.6717423920   -2.8747354696
H        1.4596379496    0.2768985450    1.1495565538
H        5.1265533904   -4.4710712358    1.8655322848
H        3.7530015507   -3.8351277136    2.9066994796
H        5.0960900133   -1.8156665895    3.5192065574
H        6.5039043889   -2.4207242717    2.4991513041
H        5.0304902592   -2.4159320366    0.4685119484
21   
torsion grid (-105,)
C        1.8002364292   -2.0274893939   -1.9936855568
C        0.8393366704   -1.0178112462   -1.9972690512
C        1.5704178076   -0.3330113499    0.2136502929
C        2.5542538346   -1.3397009795    0.2314493128
C        2.6402132474   -2.1710585318   -0.8924225242
C        0.7361295027   -0.1759714958   -0.8846891115
C        3.4064179862   -1.4355801400    1.4727824323
C        4.5312665685   -3.6177795598    2.1974271716
C        5.3939734808   -2.5064602976    2.7357112545
C        4.6334629258   -2.2807351743    1.4549147142
O        3.0383000930   -0.8555331183    2.4900611593
F        3.5466757133   -3.1787543956   -0.9429766656
Br      -0.5820727278    1.2148854110   -0.8835496392
H        1.9060686128   -2.7077325994   -2.8329754927
H        0.1809420955   -0.8904545796   -2.8502049984
H        1.4881428938    0.3071265340    1.0852611922
H        4.9975321467   -4.4750193439    1.7224566080
H        3.5967939327   -3.8230834585    2.7106284275
H        5.0375703889   -1.9688463407    3.6076667254
H        6.4715969481   -2.6082894655    2.6527434975
H        5.1765564078   -2.3187810867    0.5176202027
21   
torsion grid (-90,)
C        1.9679872576   -1.8751883749   -2.0043734400
C        0.9919119274   -0.8806589663   -1.9895702326
C        1.7838944708   -0.1573740786    0.1873740622
C        2.7770440138   -1.1556704858    0.1925248727
C        2.8420401622   -1.9959246656   -0.9268138468
C        0.9131601129   -0.0253535797   -0.8851505775
C        3.6640935625   -1.2242500173    1.4128905136
C        4.3421580639   -3.5993139062    2.1024560419
C        5.3013390557   -2.6686402706    2.8120966871
C        4.7380124588   -2.2611298871    1.4815049446
O        3.4249456713   -0.4843140470    2.3613971495
F        3.7710678201   -2.9800633609   -1.0068319753
Br      -0.4188205541    1.3524814615   -0.8615635486
H        2.0631629290   -2.5590891442   -2.8419854994
H        0.3058520903   -0.7729811491   -2.8232229956
H        1.7257643712    0.4972173272    1.0500773465
H        4.7236778246   -4.4960354027    1.6247985350
H        3.3366123901   -3.6845574043    2.5043119579
H        4.9350657832   -2.1321416151    3.6808601544
H        6.3513305704   -2.9430406088    2.8441299735
H        5.3708151328   -2.3387424433    0.6036459116
21   
torsion grid (-75,)
C        3.0506074286   -0.1852253885   -2.1595987152
C        2.6353831231    1.1449074020   -2.1181150596
C        3.4645644827    1.3188680067    0.1565364986
C        3.8797215897   -0.0260310650    0.1385907944
C        3.6632884330   -0.7469714781   -1.0426181346
C        2.8518142939    1.8870995465   -0.9520524642
C        4.5142218414   -0.5635821134    1.3983573349
C        3.4681054487   -2.8815684939    1.8548418654
C        4.5608148468   -2.6919940571    2.8925379728
C        4.6987751095   -2.0451108980    1.5464727201
O        4.7702196045    0.2108575784    2.3124098352
F        4.0647052665   -2.0370898216   -1.1499030770
Br       2.2963026446    3.7206329996   -0.8915326977
H        2.9107746435   -0.7919116287   -3.0488571770
H        2.1555427264    1.5962911315   -2.9802392801
H        3.6384384756    1.8880104194    1.0631576148
H        3.3752027128   -3.8381837514    1.3505430524
H        2.5292731176   -2.3587734644    2.0166105433
H        4.3532548542   -2.0371521740    3.7324934226
H        5.2085148476   -3.5342811329    3.1157909811
H        5.3841274104   -2.4877009302    0.8291038939
21   
torsion grid (-60,)
C        3.3630725186    0.3241976526   -1.9605248368
C        3.0773001878    1.6811622606   -1.8101502232
C        4.0032937167    1.6183596685    0.4335766657
C        4.2786736586    0.2448505900    0.3067064662
C        3.9545540281   -0.3691690061   -0.9087035096
C        3.4051118068    2.3167146447   -0.6077789916
C        4.9029890587   -0.4503703008    1.4890532301
C        3.3565286908   -2.5379048425    1.7313969082
C        4.2960298530   -2.5388708456    2.9275252995
C        4.7421581786   -1.9416811075    1.6236641366
O        5.4512693207    0.2179365160    2.3552558335
F        4.2419891480   -1.6774365620   -1.1119257870
Br       3.0256961525    4.1840874480   -0.4000733005
H        3.1399472766   -0.1998655991   -2.8846530408
H        2.6124767448    2.2352804687   -2.6189259517
H        4.2689740721    2.1066215437    1.3648873400
H        3.1644066805   -3.4702793903    1.2099360475
H        2.5119235583   -1.8543948547    1.7625238850
H        4.0831220029   -1.8521111423    3.7408146882
H        4.7418794555   -3.4801590867    3.2341448311
H        5.4518255705   -2.5072066530    1.0236118294
21   
torsion grid (-45,)
C        3.3456172829    0.3891600655   -1.8868454196
C        3.0679567481    1.7418836457   -1.6863903263
C        4.1057461152    1.6231415254    0.5064019494
C        4.3679303890    0.2532031270    0.3309924880
C        3.9858554117   -0.3298370087   -0.8822418223
C        3.4558058019    2.3470370525   -0.4864046287
C        5.0588780777   -0.4784873697    1.4502911108
C        3.3927730541   -2.5140175277    1.6051281950
C        4.1279372960   -2.4100647800    2.9274373985
C        4.7900435105   -1.9490072803    1.6501221998
O        5.7882790512    0.1413576782    2.2119309612
F        4.2724991242   -1.6300137781   -1.1288587732
Br       3.0886703393    4.2082543323   -0.2129727200
H        3.0803292485   -0.1095261676   -2.8139046959
H        2.5646334798    2.3166460138   -2.4567947962
H        4.4213615023    2.0907139200    1.4328734414
H        3.2541628772   -3.4917567646    1.1544968937
H        2.5718775335   -1.8216040944    1.4374647391
H        3.8078239625   -1.6453264178    3.6287948789
H        4.5026678586   -3.3173519097    3.3911231507
H        5.5875390390   -2.5775758996    1.2593596478
21   
torsion grid (-30,)
C        9.2542067419    0.0854427669    0.4781029498
C        9.7437956738   -1.1893530986    0.7660365086
C        9.1515793270   -0.8818253529    3.1017783327
C        8.6840029514    0.4155769631    2.8315964659
C        8.7368850843    0.8646635939    1.5082823501
C        9.6844163817   -1.6615761407    2.0811742161
C        8.1179913929    1.2139621096    3.9753775938
C        9.5754981592    3.3736854732    3.4838344271
C        9.4457942445    3.1959107595    4.9770789594
C        8.3497837720    2.6988958199    4.0444009220
O        7.4991402013    0.6362666515    4.8588657769
F        8.2340703618    2.0803309681    1.1872910012
Br      10.3409070805   -3.4178703894    2.4783678601
H        9.2602078790    0.4759157396   -0.5348228674
H       10.1562191149   -1.8079154966   -0.0241853478
H        9.0860069410   -1.2523495866    4.1192195661
H        9.4524077658    4.3655024581    3.0600540404
H       10.3069954185    2.7554408123    2.9715598444
H       10.0732484218    2.4500893929    5.4564112024
H        9.2180341670    4.0576430043    5.5966386936
H        7.4227025858    3.2658112978    4.0672155641
21   
torsion grid (-15,)
C        9.2879624705    0.0100140893    0.5396418392
C        9.7994983851   -1.2391607696    0.8959065207
C        9.1130215214   -0.8562741850    3.1947379841
C        8.6251017889    0.4157533996    2.8557149535
C        8.7148523938    0.8141264393    1.5194414590
C        9.7041968429   -1.6609792892    2.2253790418
C        7.9741979048    1.2414555812    3.9356001039
C        9.5102529991    3.3617710063    3.4491137932
C        9.5779547772    2.9970211105    4.9034106096
C        8.3160078968    2.6904659520    4.0859242928
O        7.1944720365    0.7012961879    4.7090486409
F        8.1934555340    2.0053822364    1.1386527799
Br      10.3879586641   -3.3825014756    2.7171396805
H        9.3198185270    0.3599302796   -0.4875436114
H       10.2550160950   -1.8772975810    0.1460229368
H        9.0164591544   -1.1940304273    4.2211844390
H        9.3959466085    4.4058994913    3.1748050398
H       10.1176618292    2.7832027375    2.7612350413
H       10.2063156767    2.1570937777    5.1856997510
H        9.4937902699    3.7727351786    5.6578185352
H        7.4528549109    3.3018498247    4.3309090699
21   
torsion grid (0,)
C        9.3429307979    0.2316061407    0.4149959802
C        9.9353510897   -0.9853901964    0.7576319290
C        9.1945181745   -0.6911818286    3.0540913058
C        8.6242684837    0.5483135520    2.7273972725
C        8.7031930557    0.9753453644    1.4010215271
C        9.8525847309   -1.4355466361    2.0782547404
C        7.8933880192    1.3136764643    3.8049928986
C        9.4084505900    3.4774732000    3.4423887458
C        9.6713831775    2.8789163294    4.7887565013
C        8.2925999607    2.7130130064    4.1231580853
O        7.0184733239    0.7480871274    4.4472669956
F        8.1073149032    2.1388775539    1.0396386096
Br      10.6458559758   -3.1147151162    2.5512126534
H        9.3642039243    0.6017454308   -0.6053738130
H       10.4434772565   -1.5774019151    0.0037862452
H        9.1102408737   -1.0567614265    4.0721776319
H        9.2730872733    4.5519434720    3.3670175139
H        9.8970910716    3.0276989506    2.5860579736
H       10.3089431540    2.0008146538    4.8348337943
H        9.7097922120    3.5166616735    5.6660015199
H        7.4897326174    3.2816844817    4.5813348867
21   
torsion grid (15,)
C        9.4966233574    0.4464979619    0.2548211747
C       10.1903080707   -0.7245848309    0.5662850460
C        9.4066534700   -0.5682211636    2.8631306282
C        8.7302220117    0.6235244546    2.5662490954
C        8.7839928059    1.0975000418    1.2561974382
C       10.1355140599   -1.2211818997    1.8712816462
C        7.9160993759    1.2895540158    3.6549285913
C        9.2979648618    3.5565207997    3.4571147739
C        9.7667053428    2.7910976146    4.6523221583
C        8.3186018457    2.6291507112    4.1556332875
O        6.9840546603    0.6769095528    4.1578179676
F        8.0941330867    2.2200049209    0.9291573744
Br      11.0668801437   -2.8394627385    2.3023587478
H        9.4964762220    0.8511301956   -0.7525913567
H       10.7552895935   -1.2457215777   -0.1992518320
H        9.3502326005   -0.9736121342    3.8680989808
H        9.0976706138    4.6179827601    3.5643235015
H        9.6790333580    3.2688404850    2.4850351447
H       10.4435982737    1.9587056728    4.4857059801
H        9.8921459593    3.3007162028    5.6022410908
H        7.5549581392    3.0825544743    4.7794416485
21   
torsion grid (30,)
C        9.2405462636    0.2423206999    0.3090021401
C        9.8381667917   -0.9634409201    0.6816775408
C        9.0474419833   -0.6418450588    2.9600678748
C        8.4598976360    0.5774480448    2.5973903187
C        8.5667801403    0.9875901928    1.2706050983
C        9.7332923790   -1.3931245722    2.0068680313
C        7.6766904221    1.3606134520    3.6340448636
C        9.2964079492    3.4470524027    3.5067066209
C        9.7852266529    2.5560746836    4.6018028920
C        8.2931362450    2.5650539649    4.2423500672
O        6.5848464490    0.9450500259    3.9945114984
F        7.9796754158    2.1527233010    0.8926791284
Br      10.5380777865   -3.0535059993    2.5235357981
H        9.2873267421    0.6029240595   -0.7139050865
H       10.3704700539   -1.5601730432   -0.0513153192
H        8.9590037237   -0.9953819381    3.9823642206
H        9.2109297879    4.5121249781    3.6971669109
H        9.5472422026    3.1913467843    2.4844594477
H       10.3597119268    1.6783073671    4.3237126060
H       10.0440798902    2.9883259160    5.5631155168
H        7.6291301694    3.0551844920    4.9472454441
21   
torsion grid (45,)
C        0.3868395895   -2.4213823183    1.4722932387
C       -0.3887087149   -2.3448272193    2.6306284068
C        1.2098678380   -3.7692689132    3.7849849715
C        2.0051671929   -3.8333050985    2.6323174084
C        1.5656024157   -3.1595344704    1.4951723083
C        0.0329093396   -3.0231673244    3.7773270084
C        3.2583662283   -4.6860437426    2.6497355218
C        4.8105420383   -2.8374379981    3.6177585783
C        4.8342016132   -2.6140651530    2.1404281721
C        4.5854513505   -4.0214731111    2.6656238647
O        3.1498075853   -5.9017056771    2.7244586702
F        2.3004906199   -3.2385335670    0.3557472583
Br      -1.0343725405   -2.9373802746    5.3664601495
H        0.0842829511   -1.9232861302    0.5563554774
H       -1.3102833308   -1.7726171595    2.6358743918
H        1.5172425461   -4.3083556821    4.6752870600
H        5.7438712757   -2.8436269809    4.1716868526
H        3.9511303221   -2.4737006179    4.1721953627
H        4.0071435889   -2.0804841799    1.6885809545
H        5.7912101040   -2.4595146823    1.6522604429
H        5.4011436541   -4.7330158690    2.5854229207
21   
torsion grid (60,)
C        1.2733724216   -1.3047892310    0.9441891690
C        0.6241469492   -0.6740080360    2.0073351295
C        1.7463025973   -2.1642636673    3.5668521482
C        2.4249060022   -2.7846768759    2.5079386625
C        2.1600577568   -2.3423329902    1.2121283508
C        0.8679024935   -1.1136331434    3.3112789573
C        3.3444749656   -3.9456774617    2.8143883136
C        5.5819516134   -2.7119293294    3.1816795371
C        5.4311489203   -2.7248105877    1.6916180785
C        4.7932086754   -3.8400131914    2.4962338683
O        2.8910772006   -4.9295464558    3.3830473421
F        2.7616372874   -2.9605112579    0.1644741297
Br      -0.0350283897   -0.2669608214    4.7741995271
H        1.0925155211   -1.0068074538   -0.0839677202
H       -0.0679548070    0.1400683112    1.8198613143
H        1.9118070456   -2.5165710944    4.5797099038
H        6.5292125914   -2.9932009656    3.6302932228
H        5.0124054906   -1.9742752256    3.7391267603
H        4.7872212897   -1.9784489721    1.2423124051
H        6.2841529250   -3.0075756968    1.0827960869
H        5.2832934589   -4.8085320467    2.4892032489
21   
torsion grid (75,)
C        1.3775722929   -1.2242540793    0.7567993111
C        0.6918806487   -0.5329101689    1.7574674754
C        1.7251008231   -1.9532514788    3.4374506103
C        2.4434807008   -2.6337368416    2.4424926273
C        2.2400915342   -2.2553275101    1.1140293300
C        0.8731913071   -0.9075741811    3.0918481401
C        3.3376735945   -3.7774008816    2.8539778230
C        5.7205058305   -2.8430955033    3.1316009428
C        5.4653557803   -2.7005323599    1.6581448450
C        4.7633377994   -3.8044180362    2.4138288116
O        2.8918509796   -4.6487788391    3.5884631440
F        2.8714839393   -2.9324101817    0.1235963812
Br      -0.0791006904    0.0254105684    4.4685633374
H        1.2430116272   -0.9784627012   -0.2920476672
H        0.0190979774    0.2779048274    1.4987682417
H        1.8439683112   -2.2586845809    4.4717361342
H        6.6588332661   -3.2636532369    3.4785363703
H        5.2816301278   -2.1015974286    3.7930134787
H        4.8818187491   -1.8466065369    1.3328135980
H        6.2388838885   -3.0073025790    0.9610977693
H        5.1388241148   -4.8166569185    2.2989344615
21   
torsion grid (90,)
C        1.5509934317   -1.1900902859    0.4333472057
C        0.8080542038   -0.4201273685    1.3299415678
C        1.6957840022   -1.7245726818    3.1767008592
C        2.4735687777   -2.4851179998    2.2884979569
C        2.3695760394   -2.2024313604    0.9235846204
C        0.8877608817   -0.6981542766    2.6979210432
C        3.3218333898   -3.5930870776    2.8556276606
C        5.8344029620   -3.0492496751    3.0859917609
C        5.5383056707   -2.7605630293    1.6362939985
C        4.7208418675   -3.8010522169    2.3578969958
O        2.8667549049   -4.2963094374    3.7477289030
F        3.0491264954   -2.9574895024    0.0274028503
Br      -0.1427721258    0.3459604275    3.9312407545
H        1.4937593150   -1.0206053491   -0.6374298461
H        0.1689441129    0.3773873559    0.9658497802
H        1.7407539865   -1.9567609377    4.2354752947
H        6.7207998681   -3.6175540071    3.3491275838
H        5.5400821648   -2.3042835847    3.8196913943
H        5.0689284991   -1.8094107753    1.4059133722
H        6.2308102239   -3.1134474409    0.8784581560
H        4.9352499992   -4.8464561472    2.1548743917
21   
torsion grid (105,)
C        1.5732592666   -1.2306403972    0.3503366748
C        0.7842344555   -0.4545269501    1.2005554748
C        1.6693977504   -1.6613062359    3.1134986098
C        2.4921020511   -2.4295495597    2.2721659786
C        2.4109913515   -2.1989200864    0.8948405409
C        0.8398511690   -0.6815363708    2.5795024845
C        3.3731846787   -3.4713353259    2.9075477860
C        5.9516549751   -3.2356602003    3.0468607796
C        5.5898606893   -2.7108213710    1.6760268540
C        4.7283435903   -3.7663567143    2.3197376953
O        2.9906368726   -4.0422988313    3.9197418750
F        3.1321999411   -2.9604650452    0.0385040537
Br      -0.2532331503    0.3721346383    3.7492966678
H        1.5380155139   -1.0998998430   -0.7267833425
H        0.1295817476    0.3088144139    0.7932440539
H        1.7023172685   -1.8529308337    4.1807137646
H        6.8006593197   -3.9042776343    3.1496519171
H        5.7852304653   -2.5860414158    3.9011956776
H        5.1958299646   -1.6999061350    1.6190532210
H        6.1948920301   -3.0040564061    0.8237603918
H        4.8066788608   -4.7820122280    1.9396492441
21   
torsion grid (120,)
C        1.4739000867   -1.2837991035    0.4231795943
C        0.6580982435   -0.5280769004    1.2659026119
C        1.6228426684   -1.6463448623    3.1931453495
C        2.4704880828   -2.3970272320    2.3594496206
C        2.3620444827   -2.1998822332    0.9783394790
C        0.7405260797   -0.7206702587    2.6489966495
C        3.4185029213   -3.3664859872    3.0141148881
C        6.0171167152   -3.4117962073    3.0226008934
C        5.6151677005   -2.6168967198    1.7979202975
C        4.7139325138   -3.7110063797    2.3215226229
O        3.1532315717   -3.8064853151    4.1242877084
F        3.1102180891   -2.9401679505    0.1261747489
Br      -0.3881448748    0.3066069997    3.8087865224
H        1.4227259858   -1.1771386609   -0.6559377338
H       -0.0364183902    0.1944320894    0.8501888722
H        1.6827929531   -1.8098431943    4.2637233543
H        6.8186335127   -4.1385974255    2.9317326724
H        5.9612794265   -2.9232153462    3.9906496863
H        5.3017275996   -1.5875272492    1.9519701137
H        6.1356602369   -2.7919278401    0.8615178677
H        4.6581053174   -4.6247232971    1.7338831520
21   
torsion grid (135,)
C        1.7517349984   -1.3181303943   -0.0660911616
C        0.8959758136   -0.4814366410    0.6496731629
C        1.7390515805   -1.4138575043    2.7266495501
C        2.6224345593   -2.2520050363    2.0217593184
C        2.5941996937   -2.1855750249    0.6234466685
C        0.8978390934   -0.5422722246    2.0473759864
C        3.5211232517   -3.1490650671    2.8355243333
C        6.0554939779   -3.7044992592    2.9388186122
C        5.8462392566   -2.7569345478    1.7784793572
C        4.7510457014   -3.7274388459    2.1891456882
O        3.2873832237   -3.3037588979    4.0271983621
F        3.3833574375   -2.9987511477   -0.1193556562
Br      -0.2870762774    0.5939344154    3.0369815930
H        1.7686893890   -1.3118187376   -1.1514943813
H        0.2349575616    0.2020557285    0.1270532847
H        1.7421994728   -1.4710687312    3.8096649276
H        6.7307543630   -4.5441267132    2.8036278818
H        6.0389551597   -3.2943780195    3.9435818554
H        5.6997646624   -1.7050510481    2.0100084473
H        6.3604600746   -2.9451267442    0.8411584473
H        4.5603600906   -4.5455395682    1.4997179121
21   
torsion grid (150,)
C        1.8709201411   -1.2312633102   -0.2171317721
C        0.9804817842   -0.3951527959    0.4541784325
C        1.8383866702   -1.2106219347    2.5715234701
C        2.7506616460   -2.0569055512    1.9124699835
C        2.7328722884   -2.0469381277    0.5117090406
C        0.9729018634   -0.3974488225    1.8532399413
C        3.6632348207   -2.8864562013    2.7844249078
C        6.0217092741   -3.9469675774    2.9131974352
C        6.0287070972   -2.9094834183    1.8183258505
C        4.7544468684   -3.6893528408    2.1453305957
O        3.5583165843   -2.8002835857    4.0027446711
F        3.5615352166   -2.8485215669   -0.2013202697
Br      -0.2583609683    0.7373336040    2.7864491228
H        1.9037308756   -1.2637073039   -1.3016626878
H        0.3027939829    0.2441334859   -0.1019691431
H        1.8415872234   -1.2171941954    3.6559478835
H        6.5333453222   -4.8872391577    2.7305901056
H        6.0464637897   -3.6036399220    3.9420191722
H        6.0648996889   -1.8641693755    2.1124898062
H        6.5177965790   -3.1345875109    0.8758171167
H        4.4400151073   -4.4003004475    1.3883570892
21   
torsion grid (165,)
C        1.8483525138   -1.1400338741   -0.2209223895
C        0.8990434462   -0.3799137477    0.4597558775
C        1.8496356259   -1.1061700209    2.5711620182
C        2.8136081554   -1.8855038643    1.9034897513
C        2.7802083296   -1.8796204207    0.5030002254
C        0.9103827159   -0.3736084559    1.8587387316
C        3.7971450104   -2.6369720624    2.7678702313
C        5.9295511881   -4.0913681804    2.9236531018
C        6.1450185068   -3.0453828314    1.8668432961
C        4.7400682872   -3.6043878834    2.1351727178
O        3.8530849788   -2.3736195238    3.9651101660
F        3.6791215036   -2.5952911176   -0.2170887366
Br      -0.3968314169    0.6642810112    2.8004204981
H        1.8768765350   -1.1676212203   -1.3057416726
H        0.1634818495    0.1981377929   -0.0897887982
H        1.8723234334   -1.0984979590    3.6554074658
H        6.2714832258   -5.1018898833    2.7215929766
H        5.9782872777   -3.7802509854    3.9614948026
H        6.3407812154   -2.0281447887    2.1928629306
H        6.6087147647   -3.3239537399    0.9258758918
H        4.3368661672   -4.2332721682    1.3498242872
21   
torsion grid (180,)
C        1.7696891146   -1.0763543868   -0.1906255636
C        0.7918049993   -0.3856956857    0.5235738990
C        1.8657109217   -1.0389431690    2.6006559302
C        2.8527768566   -1.7544111299    1.8974473900
C        2.7747728927   -1.7486032787    0.4994943238
C        0.8526690783   -0.3754960987    1.9211271474
C        3.9158894173   -2.4386581019    2.7189630901
C        5.8098677584   -4.1757527514    2.9392785824
C        6.2386962419   -3.1501280598    1.9352474523
C        4.7492833562   -3.5028227143    2.0964638406
O        4.0964725663   -2.0734129400    3.8774780511
F        3.7094820307   -2.3878646142   -0.2475711991
Br      -0.4867586406    0.5753073601    2.9078817260
H        1.7659105983   -1.0971967763   -1.2759381158
H       -0.0011686169    0.1387882913    0.0007963357
H        1.9276464773   -1.0229312731    3.6833271586
H        6.0079335118   -5.2213879109    2.7243540206
H        5.8339325217   -3.8956637233    3.9868464251
H        6.5469270908   -2.1777174366    2.3062273774
H        6.7135961034   -3.4699247066    1.0131932301
H        4.3109292784   -4.0554083889    1.2747663340
