22   
torsion grid (-165,)
C       -0.9157493137   -1.8916065933    0.5538235881
C       -0.3673602450    0.3158653986   -0.9659703542
C       -2.4027308052    2.0808534269    1.0910361803
C       -3.7083087879    2.8570056693    0.9623786929
C       -3.4423756598    0.2943983415   -0.2326170205
C       -0.0550686453    0.1771933448    2.1305875469
N       -2.4541353230    0.7384592449    0.7550475536
O       -1.3868560387    2.6422637886    1.5048897224
S       -0.8331061434   -0.2654141263    0.5147571811
H       -0.9310104370   -2.3707093097    1.5250328675
H       -1.2941840221   -2.3826445591   -0.3326020435
H       -0.4953072854    1.3893134818   -1.0628809344
H        0.5484619371   -0.1362887959   -1.3323270509
H       -4.5388965715    2.3407013249    1.4521130404
H       -3.9747885882    2.9923796464   -0.0909788980
H       -3.5616765580    3.8358024390    1.4195461712
H       -3.3327936485    0.7992781422   -1.1973449961
H       -3.3104630728   -0.7796614697   -0.3922808498
H       -4.4553588647    0.4390340226    0.1521783258
H        0.1581297367    1.2406280881    2.0896256643
H       -0.7572919338   -0.0430857661    2.9379268290
H        0.8455557525   -0.4342150188    2.1998562112
22   
torsion grid (-150,)
C       -0.9052463391   -1.8529289388    0.4208883459
C       -0.2920247175    0.4389693197   -0.9391217757
C       -2.3529481573    2.1202661693    0.9870087338
C       -3.6510836874    2.9045002136    0.8514339196
C       -3.5095897158    0.2022083196   -0.0568984074
C       -0.1404101551    0.0958914602    2.1803438687
N       -2.4257217567    0.7641477133    0.7454986135
O       -1.3091427955    2.6859115452    1.3236397834
S       -0.8113803491   -0.2290522798    0.4875593169
H       -0.9443974878   -2.3988014142    1.3550681882
H       -1.2223051275   -2.2878204124   -0.5171641729
H       -0.4080338303    1.5172436170   -0.9692022092
H        0.6450962002    0.0119516944   -1.2829588338
H       -4.4477417985    2.4730710222    1.4650516175
H       -3.9970257407    2.9073532742   -0.1873276803
H       -3.4597589483    3.9298083157    1.1685002405
H       -3.5285648188    0.5996737927   -1.0775537454
H       -3.3667721217   -0.8815944341   -0.1123604905
H       -4.4746366032    0.3760715956    0.4262678813
H       -0.0529214795    1.1757020658    2.2711900669
H       -0.8383875706   -0.3082094276    2.9168933613
H        0.8276824824   -0.4048124908    2.2250408051
22   
torsion grid (-135,)
C       -0.8989483586   -1.8183615187    0.3217132588
C       -0.1772433895    0.5049515887   -0.9270536346
C       -2.3205688683    2.1525931479    0.8889778954
C       -3.6269002796    2.9274012509    0.7894562666
C       -3.5528505458    0.1459885763    0.0830123925
C       -0.2292960314    0.0485903965    2.1974734478
N       -2.3911958868    0.8002982461    0.6665735654
O       -1.2623151565    2.7219002132    1.1765398213
S       -0.7818116634   -0.2000074052    0.4468781672
H       -0.9776227208   -2.3993131280    1.2316795983
H       -1.1571730420   -2.2193076663   -0.6488973737
H       -0.2823579801    1.5843333274   -0.9303513596
H        0.7786430900    0.0805787500   -1.2196981304
H       -4.3782361268    2.5339821455    1.4813917381
H       -4.0428049609    2.8641324959   -0.2213169286
H       -3.4213115118    3.9703221779    1.0311993145
H       -3.7597462108    0.4869123177   -0.9381363390
H       -3.3562637157   -0.9311057395    0.0494353719
H       -4.4396145738    0.2972653685    0.7053061643
H       -0.1957470454    1.1248935724    2.3546697840
H       -0.9508417225   -0.4302343209    2.8626848684
H        0.7588921828   -0.4062630757    2.2802595386
22   
torsion grid (-120,)
C       -0.8918108595   -1.7975054813    0.2489456292
C       -0.0518194404    0.5308438985   -0.9172898667
C       -2.2983806827    2.1775934048    0.7924299846
C       -3.6178356966    2.9357783338    0.7597277870
C       -3.5733545085    0.1161651306    0.1942731851
C       -0.3259087330    0.0297316790    2.1940933683
N       -2.3601765432    0.8353161206    0.5387015669
O       -1.2332466287    2.7534905832    1.0435750096
S       -0.7545809382   -0.1836123295    0.4016341184
H       -1.0125384157   -2.3920136515    1.1453645996
H       -1.0924983370   -2.1844294865   -0.7407283693
H       -0.1528333904    1.6102961180   -0.9200739216
H        0.9189028292    0.1001203129   -1.1447201917
H       -4.3187885745    2.5455764915    1.5047552919
H       -4.0967172141    2.8493497669   -0.2208984303
H       -3.4117650144    3.9849954196    0.9720368968
H       -3.9957243646    0.4456868573   -0.7620036060
H       -3.3234070280   -0.9472161295    0.1016342513
H       -4.3332613083    0.2104716014    0.9772025175
H       -0.2966351331    1.1037592900    2.3705129712
H       -1.0951182302   -0.4546487049    2.7993105264
H        0.6521836942   -0.4301985043    2.3433141088
22   
torsion grid (-105,)
C       -0.8748759010   -1.7847166355    0.1880460538
C        0.0612349602    0.5420349914   -0.9045168669
C       -2.2805473897    2.1951094137    0.6965113854
C       -3.6074299845    2.9399573798    0.7462724632
C       -3.5713283887    0.0988942634    0.2909478451
C       -0.4369768218    0.0212598555    2.1809665782
N       -2.3419709232    0.8634437428    0.3922636440
O       -1.2103405633    2.7736632420    0.9168544316
S       -0.7356459449   -0.1720359751    0.3559546707
H       -1.0420522840   -2.3856324068    1.0726915451
H       -1.0214547548   -2.1654299238   -0.8135214969
H       -0.0429353269    1.6204030025   -0.9249038697
H        1.0406414109    0.1034360033   -1.0690128234
H       -4.2472219800    2.5497573605    1.5449914029
H       -4.1561447387    2.8383005696   -0.1951563310
H       -3.3990785038    3.9931582985    0.9355064756
H       -4.1861876349    0.4285198617   -0.5535213419
H       -3.3056169919   -0.9503931890    0.1158664910
H       -4.1682848683    0.1454858396    1.2097173944
H       -0.3957783924    1.0932495340    2.3682821224
H       -1.2599735696   -0.4490558017    2.7238267778
H        0.5166540735   -0.4598587056    2.4037308758
22   
torsion grid (-90,)
C       -0.8469052048   -1.7692780739    0.1108942990
C        0.1551675726    0.5757416729   -0.8764020301
C       -2.2757034704    2.2075406737    0.6006024444
C       -3.6067290804    2.9407339589    0.6988055459
C       -3.5469436603    0.0857295202    0.4233038772
C       -0.5477316665   -0.0064716173    2.1638617024
N       -2.3354462475    0.8756962945    0.2766400094
O       -1.2062468583    2.7958919181    0.7892990546
S       -0.7208947035   -0.1592846069    0.3153108557
H       -1.0585996262   -2.3850244320    0.9755666698
H       -0.9492096071   -2.1314796049   -0.9029969825
H        0.0577914288    1.6542482221   -0.8896207437
H        1.1360062730    0.1264245648   -0.9949349232
H       -4.1980680557    2.5662471782    1.5413557118
H       -4.2037382263    2.8092544023   -0.2086641368
H       -3.3998175741    4.0002258347    0.8509182931
H       -4.3216213189    0.4146236658   -0.2761879733
H       -3.3077872068   -0.9552322782    0.1777867214
H       -3.9528088591    0.1113329811    1.4433272411
H       -0.4908290381    1.0608502804    2.3743162036
H       -1.4191026381   -0.4617102911    2.6405736612
H        0.3739032498   -0.5165095428    2.4480419261
22   
torsion grid (-75,)
C       -0.8153146955   -1.7475566666    0.0067559301
C        0.2297635882    0.6349295282   -0.8195760778
C       -2.2817867885    2.2238442441    0.5060508849
C       -3.6160531355    2.9517554477    0.6091989380
C       -3.5092415416    0.0937145924    0.5978545537
C       -0.6457356234   -0.0870564900    2.1495043183
N       -2.3431496033    0.8779371927    0.2115176732
O       -1.2176250801    2.8275166327    0.6586431168
S       -0.7124457351   -0.1457698187    0.2851156308
H       -1.0624524752   -2.4001178770    0.8341465883
H       -0.8839771699   -2.0653420140   -1.0247708723
H        0.1478026290    1.7132229549   -0.8044594629
H        1.1980663826    0.1598006887   -0.9334173141
H       -4.1676060581    2.6302767280    1.4992353251
H       -4.2481134428    2.7564063860   -0.2620893481
H       -3.4132272052    4.0202585742    0.6850544789
H       -4.3849308234    0.3793993634    0.0077757801
H       -3.3029219190   -0.9586935291    0.3732124869
H       -3.7559400559    0.1804431323    1.6646097314
H       -0.6000202563    0.9682182299    2.4186828244
H       -1.5397200095   -0.5628215056    2.5583283733
H        0.2593145010   -0.6108150735    2.4604238684
22   
torsion grid (-60,)
C       -0.8006101096   -1.7130900049   -0.1294121113
C        0.2988124836    0.7114455116   -0.7063765833
C       -2.3074756866    2.2574036454    0.3980663099
C       -3.6584876161    2.9628764999    0.4536807928
C       -3.4578728726    0.1478135006    0.8208295111
C       -0.6967112828   -0.2488606236    2.1470751178
N       -2.3492071727    0.8829125518    0.2146511540
O       -1.2642543662    2.9023462401    0.4893728406
S       -0.7092428383   -0.1371782702    0.2787500675
H       -1.0907402074   -2.4257251823    0.6317476236
H       -0.8495820947   -1.9440261822   -1.1850118657
H        0.2385157071    1.7869493161   -0.6307816134
H        1.2456274505    0.2031709083   -0.8475819457
H       -4.1578850158    2.7677215345    1.4088389181
H       -4.3245736032    2.6300682520   -0.3472129101
H       -3.4796769455    4.0348133370    0.3653305565
H       -4.3987350661    0.3819590249    0.3148190074
H       -3.2839358085   -0.9231246243    0.6688220691
H       -3.5751197485    0.3413025226    1.8947767866
H       -0.7136776964    0.7769054551    2.5178555091
H       -1.5636403771   -0.8097003318    2.4981454924
H        0.2331583489   -0.7464323600    2.4254127003
22   
torsion grid (-45,)
C        0.4821627072    0.5086867615    1.6049902620
C       -1.2330697719   -1.6205613552    1.4341939339
C       -3.4033909705    0.8888213145    1.4030078039
C       -3.6119675973   -0.1182047843    2.5140295736
C       -2.1765105658    1.8471199510   -0.4538233348
C       -0.1627465509   -0.1580110018   -0.9683981245
N       -2.3990047571    0.6892595037    0.4303831648
O       -4.1629363319    1.8529430827    1.3171121254
S       -0.7538289733   -0.1891870376    0.7891974488
H        1.0726459092    1.2418829373    1.0684843881
H        0.3643293938    0.5759579726    2.6796479542
H       -2.1529747713   -2.0307647751    1.0397609029
H       -0.4149208981   -2.2629430514    1.7322612474
H       -2.6950564742   -0.3528111515    3.0546219242
H       -3.9850896546   -1.0623916933    2.1081525222
H       -4.3631997679    0.3035980673    3.1826830138
H       -1.2638308740    2.3918625213   -0.1760281130
H       -2.1123052844    1.5349487111   -1.4979922588
H       -3.0177773571    2.5269397841   -0.3391627193
H       -0.9945991284   -0.4991310086   -1.5840617687
H        0.1930973458    0.8223714924   -1.2857624851
H        0.6459741317   -0.8895323329   -0.9803720410
22   
torsion grid (-30,)
C        0.3362530072    0.2935250387    1.7841749584
C       -1.4060553901   -1.7307297799    1.1596576022
C       -3.3774933411    0.8906840390    1.3924879851
C       -3.3467611518    0.0874951653    2.6778502103
C       -2.3156630024    1.7392689246   -0.6138029826
C       -0.0422731729   -0.0061841823   -0.9004849183
N       -2.4310816714    0.6531007337    0.3747379635
O       -4.2480344525    1.7451128885    1.2352724133
S       -0.8268494162   -0.2481538095    0.7644516967
H        0.9808124989    1.0810535415    1.4108963395
H        0.1165126251    0.2213014841    2.8420826988
H       -2.3057834526   -2.0396538369    0.6444430066
H       -0.6552832102   -2.4384254574    1.4846427114
H       -2.3675998309    0.1201101674    3.1607897839
H       -3.5717791086   -0.9643904211    2.5022946815
H       -4.0981903208    0.5269100316    3.3351651850
H       -1.4793553237    2.4111308602   -0.3807841292
H       -2.1967071968    1.3417293694   -1.6226716089
H       -3.2349041370    2.3201980272   -0.5723275064
H       -0.7631488093   -0.3433255246   -1.6438889358
H        0.2743268490    1.0207250556   -1.0873734842
H        0.8140577670   -0.6806284073   -0.8746882508
22   
torsion grid (-15,)
C        0.2826237708    0.1407808762    1.8726688935
C       -1.4725009534   -1.7770854781    1.0152129662
C       -3.3197549424    0.9647928462    1.4324607876
C       -3.2298584114    0.2023878451    2.7394722492
C       -2.4337191379    1.6229437354   -0.7273048882
C        0.0286298128    0.1121580873   -0.8283870668
N       -2.4385148307    0.6565787926    0.3828070325
O       -4.1740801995    1.8386093501    1.2898289062
S       -0.8477330640   -0.2819108075    0.7629898588
H        0.9605715952    0.9413766859    1.5992527925
H        0.0251953216   -0.0286903140    2.9102160726
H       -2.3809584206   -2.0093483919    0.4763891139
H       -0.7577016855   -2.5322548209    1.3132844144
H       -2.2542809295    0.3447797968    3.2129636424
H       -3.3611837962   -0.8698873430    2.5978608714
H       -4.0055766801    0.6026911471    3.3929382073
H       -1.6731414366    2.4026788238   -0.5974028180
H       -2.2837122962    1.1166757531   -1.6813238334
H       -3.4081384580    2.1087554003   -0.7382635182
H       -0.6101469150   -0.2204963579   -1.6441568216
H        0.2819222592    1.1689553260   -0.9251250675
H        0.9270591565   -0.5036370447   -0.7834563744
22   
torsion grid (0,)
C        0.2125268456   -0.0282326223    1.9397570793
C       -1.5321573244   -1.8307635347    0.8570071559
C       -3.2614407089    1.0368164007    1.4629601108
C       -3.1005977687    0.3484706471    2.8038837668
C       -2.5340934056    1.4955535381   -0.8070136337
C        0.0776700509    0.2242831460   -0.7521441872
N       -2.4449957361    0.6515936610    0.3935745128
O       -4.1045892521    1.9215172134    1.3172670220
S       -0.8720818168   -0.3300108518    0.7500213319
H        0.9192411460    0.7768601099    1.7723862055
H       -0.0932112618   -0.2927781607    2.9433377337
H       -2.4410591832   -1.9865332104    0.2916975432
H       -0.8353587342   -2.6289778465    1.0773125036
H       -2.2327484376    0.7675725658    3.3242636928
H       -2.9550960151   -0.7281065122    2.7156717995
H       -3.9920985510    0.5726140945    3.3903928887
H       -1.8277496857    2.3339412859   -0.7888813305
H       -2.3767457761    0.8985435494   -1.7062968148
H       -3.5407707651    1.9114056524   -0.8362428486
H       -0.4864490393   -0.0722246759   -1.6333458186
H        0.2679965606    1.2989430542   -0.7454158893
H        1.0088086173   -0.3396335962   -0.6972674037
22   
torsion grid (15,)
C        0.1759775799   -0.1513298846    1.9819383162
C       -1.5699669817   -1.8413925765    0.7409741132
C       -3.2266119601    1.0851957385    1.4762700800
C       -3.0153721906    0.4572054677    2.8403633575
C       -2.6032768463    1.3705038207   -0.8637709042
C        0.1161074194    0.3324086397   -0.6726201466
N       -2.4186674097    0.6766828797    0.4172084733
O       -4.0994411979    1.9368474334    1.3076854275
S       -0.8795796935   -0.3489086875    0.7470446463
H        0.9018452562    0.6488702113    1.8901581766
H       -0.1601808630   -0.4826600520    2.9552443290
H       -2.4804441281   -1.9351909059    0.1641590908
H       -0.8888754399   -2.6692805365    0.8918556409
H       -2.1615361134    0.9320931110    3.3340455065
H       -2.8301885192   -0.6167045432    2.7871559001
H       -3.9099460887    0.6591942533    3.4303209676
H       -1.9148914878    2.2131853262   -0.9926967844
H       -2.4894932360    0.6707995132   -1.6947803537
H       -3.6199737984    1.7636169806   -0.8746818657
H       -0.4055390942    0.1042760864   -1.5987779369
H        0.2754896819    1.4071799993   -0.5642968928
H        1.0595648700   -0.2117383666   -0.6298737213
22   
torsion grid (30,)
C        0.1536582847   -0.2575947731    2.0065710364
C       -1.6128509213   -1.8245257917    0.6432818350
C       -3.2077885114    1.1181263763    1.4835247421
C       -2.9520588009    0.5511787227    2.8670009000
C       -2.6492389833    1.2564766354   -0.8966487015
C        0.1502162974    0.4248455427   -0.6009543609
N       -2.3683640383    0.7332762476    0.4454991988
O       -4.1341510180    1.9039130497    1.2841744404
S       -0.8806499060   -0.3533848293    0.7440087898
H        0.9028714692    0.5254804124    1.9754897068
H       -0.2078750352   -0.6398388762    2.9515029476
H       -2.5189719550   -1.8565002693    0.0518693831
H       -0.9509979967   -2.6781556441    0.7229068518
H       -2.0700427841    1.0219606643    3.3109765329
H       -2.7922252737   -0.5289602042    2.8467346796
H       -3.8225110776    0.7887704045    3.4790005271
H       -2.0000526378    2.0977457220   -1.1619522291
H       -2.5458242860    0.4642778463   -1.6435286341
H       -3.6812339228    1.6086358736   -0.8993156153
H       -0.3321831143    0.2400456411   -1.5576836920
H        0.2655872253    1.4957791155   -0.4206781041
H        1.1096867446   -0.0906979580   -0.5588548144
22   
torsion grid (45,)
C        0.1264083102   -0.3676895787    2.0221657202
C       -1.6545874232   -1.7991400421    0.5405916409
C       -3.1919734080    1.1470541045    1.4832421979
C       -2.8887502021    0.6558652981    2.8859454473
C       -2.6966801740    1.1368405122   -0.9167225894
C        0.1900451605    0.5140529579   -0.5219866484
N       -2.3194602295    0.7961156588    0.4619100734
O       -4.1760909684    1.8495936075    1.2547895559
S       -0.8808693325   -0.3561165204    0.7358338904
H        0.8989744535    0.3922948708    2.0549297364
H       -0.2647101074   -0.7991306785    2.9334820052
H       -2.5519503925   -1.7720391030   -0.0649904905
H       -1.0107759164   -2.6705954903    0.5485889321
H       -1.9646695626    1.0997873197    3.2652180245
H       -2.7804380335   -0.4316005881    2.9121096087
H       -3.7205311335    0.9581214040    3.5223987219
H       -2.1284854403    1.9929496730   -1.2957538981
H       -2.5440720275    0.2788747312   -1.5780563020
H       -3.7554126952    1.3985772107   -0.9173588504
H       -0.2530211434    0.3766950281   -1.5057520515
H        0.2586705404    1.5748187764   -0.2719031978
H        1.1633794841    0.0255247560   -0.4757561066
22   
torsion grid (60,)
C        0.0589772632   -0.5091022031    2.0387554164
C       -1.6695566701   -1.8082357517    0.3928718784
C       -3.1442333931    1.2100536752    1.4670953389
C       -2.7931379031    0.8350526013    2.8942610988
C       -2.7981561831    0.9940168364   -0.9268471943
C        0.2435735251    0.5829283848   -0.4092545130
N       -2.3007554220    0.8052315367    0.4459417949
O       -4.1511373493    1.8693183494    1.2087149116
S       -0.8884490172   -0.3908791476    0.7147474867
H        0.8415380360    0.2308466065    2.1618545359
H       -0.3706764713   -1.0112390439    2.8948900827
H       -2.5478641239   -1.7340140925   -0.2354716283
H       -1.0307955807   -2.6826869095    0.3516804384
H       -1.8185022354    1.2303517159    3.1892975570
H       -2.7661188500   -0.2518034854    3.0146267824
H       -3.5667825693    1.2513919210    3.5397075479
H       -2.5981071890    2.0108371382   -1.2808797418
H       -2.3195723150    0.2802808085   -1.5992874778
H       -3.8774037493    0.8276274632   -0.9494352279
H       -0.1978252170    0.6254938920   -1.4024217782
H        0.3573978923    1.5887362999   -0.0006146523
H        1.1925872811    0.0466473127   -0.4373072367
22   
torsion grid (75,)
C       -0.0345431440   -0.6654528134    2.0486408016
C       -1.6798561459   -1.7955248960    0.2148261605
C       -3.1302563589    1.2237099061    1.4549706751
C       -2.6640688402    1.0495228134    2.8875946957
C       -2.8995168414    0.8680929490   -0.9168134853
C        0.3023727923    0.6211071467   -0.2866829979
N       -2.2872946097    0.8369245355    0.4219720894
O       -4.2229001402    1.7284051873    1.2001864760
S       -0.9032674654   -0.4181975711    0.6882123190
H        0.7482265140    0.0471867829    2.2814031006
H       -0.5202202481   -1.2315550028    2.8321935786
H       -2.5102713827   -1.6717711738   -0.4667636975
H       -1.0427849700   -2.6695207459    0.1478266017
H       -1.6473536544    1.4134463396    3.0456191757
H       -2.6878232469   -0.0080359566    3.1673984895
H       -3.3589488721    1.5970798266    3.5250660643
H       -3.1688042851    1.8973938461   -1.1661827478
H       -2.1897786500    0.4987066584   -1.6581459387
H       -3.8078303699    0.2582584712   -0.9549269197
H       -0.1310343870    0.8336730484   -1.2618305472
H        0.4736921517    1.5509002341    0.2583902306
H        1.2172619131    0.0365043222   -0.3900287042
22   
torsion grid (90,)
C       -1.1958516118   -1.7032556246    1.6208285918
C       -0.2649903987   -0.8603871185   -0.8866606809
C       -3.0246332320    1.1964931666    1.6002838080
C       -4.1654736464    2.2034355516    1.5105688808
C       -2.6083785078    1.4917810263   -0.8244947450
C        0.1755635706    0.8395153465    1.2356107987
N       -2.4721091313    0.7788151085    0.4295443054
O       -2.6337292967    0.7744266186    2.7003387749
S       -0.8846624844   -0.4672862312    0.5707597645
H       -1.9638848641   -1.4862828553    2.3526251704
H       -1.1459627163   -2.6683500349    1.1276587042
H        0.4419675280   -0.1789135459   -1.3394890572
H       -0.7528463941   -1.6482464269   -1.4442259357
H       -4.9642115911    1.8409077961    0.8558405350
H       -3.8124687077    3.1569146857    1.1024147474
H       -4.5602360365    2.3677074996    2.5135982371
H       -2.2283416196    2.5225776800   -0.7768518834
H       -2.0319890213    0.9523870652   -1.5861479753
H       -3.6497872900    1.5185418585   -1.1667681014
H        0.2048703580    1.6558487154    0.5114556380
H       -0.2880047712    1.1514952646    2.1710785336
H        1.1598453469    0.4014251752    1.4038293163
22   
torsion grid (105,)
C       -1.2286323816   -1.6996047474    1.5737346177
C       -0.2352288784   -0.7964697533   -0.8969559894
C       -2.9670770361    1.2691459040    1.6053815224
C       -4.1521353345    2.2225269822    1.5091503945
C       -2.6849473485    1.4330777292   -0.8607791865
C        0.2360394637    0.7852298005    1.3204446261
N       -2.3810636872    0.8866676324    0.4441787314
O       -2.5622044443    0.8630525972    2.7087738327
S       -0.8571064833   -0.4383078973    0.5684165670
H       -1.9757674719   -1.4527510900    2.3196007238
H       -1.2903777005   -2.6369515625    1.0291012312
H        0.4862494439   -0.1122705670   -1.3216584842
H       -0.7327457921   -1.5562439902   -1.4841099571
H       -4.9505064426    1.7984694002    0.8914334695
H       -3.8552348254    3.1735587632    1.0537868244
H       -4.5295620025    2.4068325565    2.5153452233
H       -2.4655431733    2.5074142516   -0.9288269911
H       -2.0571050911    0.9164466099   -1.5979582210
H       -3.7307516301    1.2691121720   -1.1492274916
H        0.3351780795    1.6200646741    0.6246477902
H       -0.2542761386    1.0918037481    2.2440156221
H        1.1874843573    0.2887475075    1.5133025717
22   
torsion grid (120,)
C       -1.2800265235   -1.6768042683    1.5274087695
C       -0.2085402987   -0.7492387375   -0.9047190810
C       -2.9097463249    1.3455775819    1.6027226516
C       -4.1562245966    2.2161540829    1.5029993061
C       -2.7302557801    1.3943360854   -0.8757869171
C        0.3023060230    0.7259190558    1.3873224278
N       -2.2730038508    1.0290056410    0.4481582298
O       -2.4947764361    0.9506664184    2.7071370496
S       -0.8348950478   -0.4025733687    0.5630934971
H       -1.9931834671   -1.3950343780    2.2952685811
H       -1.4554495468   -2.5753400502    0.9421118084
H        0.5120470263   -0.0563678416   -1.3168720220
H       -0.7282370596   -1.4750359483   -1.5154438189
H       -4.9470526081    1.6978584480    0.9498781675
H       -3.9489107677    3.1536180102    0.9766466172
H       -4.5068491795    2.4344822586    2.5120740662
H       -2.6707638142    2.4772739071   -1.0446616184
H       -2.0701288574    0.9104240479   -1.6068955981
H       -3.7557595844    1.0621427719   -1.0831875499
H        0.4703199592    1.5734645168    0.7214674930
H       -0.2010883810    1.0341634034    2.3031899230
H        1.2149045980    0.1648590841    1.5898854447
22   
torsion grid (135,)
C       -1.3404641997   -1.6539498156    1.4624495493
C       -0.1552273780   -0.7003390989   -0.9082806097
C       -2.8435556699    1.4333727080    1.5883737213
C       -4.1377173272    2.2307442053    1.4882869511
C       -2.7827880572    1.3201595753   -0.8783946495
C        0.3427621438    0.6624164537    1.4656196826
N       -2.1836156418    1.1499633520    0.4321871147
O       -2.4101778745    1.0704891281    2.6959039314
S       -0.8161526435   -0.3668174603    0.5513960613
H       -2.0143655636   -1.3458236794    2.2564769981
H       -1.6256461139   -2.4967229084    0.8375939281
H        0.5294244619    0.0345399081   -1.3103713590
H       -0.6914515371   -1.3867316309   -1.5504567236
H       -4.9161219365    1.6366819068    0.9965131187
H       -4.0058133878    3.1464421649    0.9034923212
H       -4.4659637665    2.4835059625    2.4968522973
H       -2.9052577789    2.3811523014   -1.1272411126
H       -2.1018340134    0.8891590506   -1.6222053531
H       -3.7553224021    0.8210169935   -0.9828310379
H        0.5681103564    1.5328977612    0.8483337087
H       -0.1753965035    0.9505685388    2.3792335432
H        1.2212603154    0.0468253037    1.6588653454
22   
torsion grid (150,)
C       -1.1492355490   -1.7114260545    1.3807358127
C       -0.4952260347   -0.5796868311   -1.0328479891
C       -2.7731339658    1.5224230945    1.4965213110
C       -4.0199434003    2.3912521811    1.3851441882
C       -2.9575885903    1.1075882607   -0.9287310666
C        0.2602004652    0.6475996665    1.6221147156
N       -2.1949564221    1.0947745253    0.3238172491
O       -2.3114315965    1.2404551565    2.6079111617
S       -0.8809153650   -0.3201702533    0.5598406733
H       -1.1840384765   -1.6220062714    2.4595268150
H       -1.7823469671   -2.4304741083    0.8743633784
H       -0.3581505623    0.3271237442   -1.6119609805
H        0.2179433109   -1.3859026371   -1.1552985807
H       -4.9011434653    1.7636944054    1.2112544451
H       -3.9601172247    3.1176724911    0.5707351257
H       -4.1489990356    2.9080188349    2.3366566684
H       -2.8143183229    2.0548196286   -1.4617546025
H       -2.5937522381    0.2965879941   -1.5630911702
H       -4.0260025851    0.9476931179   -0.7607810339
H        0.2909128658    1.6524068119    1.2012025224
H       -0.1085764118    0.6684934503    2.6442504865
H        1.2255050536    0.1486135136    1.5221882977
22   
torsion grid (165,)
C       -1.1699600017   -1.7353838634    1.2671856144
C       -0.4186277276   -0.4683558918   -1.0454187145
C       -2.7115244559    1.6404796375    1.4641353934
C       -3.9563238935    2.5080752240    1.3203961059
C       -3.0638928041    0.9438617926   -0.8543223939
C        0.2366073261    0.5814834120    1.7177296758
N       -2.1727502825    1.1256559578    0.3011394248
O       -2.2216425919    1.4452674010    2.5799648955
S       -0.8637935747   -0.2997219666    0.5413385722
H       -1.2196652017   -1.7268997650    2.3490968701
H       -1.7744178452   -2.4288685624    0.6949959599
H       -0.3060281129    0.4685237447   -1.5797448313
H        0.3043760044   -1.2601760945   -1.1975332400
H       -4.8439644670    1.8776830205    1.1989361705
H       -3.9052336216    3.1805991342    0.4604251783
H       -4.0658122197    3.0852213292    2.2390706804
H       -3.1810751555    1.8869894293   -1.3986856151
H       -2.6065631107    0.2189755358   -1.5298815204
H       -4.0515548156    0.5698970499   -0.5659483710
H        0.2511015976    1.6277941726    1.4152275333
H       -0.1371862771    0.4836056528    2.7327176179
H        1.2126167132    0.1148443705    1.5709724212
22   
torsion grid (180,)
C       -1.1693427087   -1.7732368823    1.1008708529
C       -0.3381073335   -0.3094482322   -1.0550486187
C       -2.6326662855    1.8235098299    1.4124427277
C       -3.9146738815    2.6304434064    1.2285451811
C       -3.1709998615    0.7444455509   -0.7152945310
C        0.2000219776    0.4795610028    1.8286728502
N       -2.1853917694    1.1187057489    0.3100207426
O       -2.0411974176    1.8543410593    2.4940237740
S       -0.8405835388   -0.2796827689    0.5192252591
H       -1.2279610410   -1.8818310917    2.1770425495
H       -1.7265664980   -2.4285439954    0.4430650000
H       -0.2716119956    0.6635192498   -1.5274123209
H        0.3955476948   -1.0780874243   -1.2621302777
H       -4.7830054476    1.9699824717    1.1368075912
H       -3.8798786632    3.2573700401    0.3330245988
H       -4.0384506315    3.2574403825    2.1117395703
H       -3.5040190531    1.6302305918   -1.2637453380
H       -2.6864386987    0.0773201737   -1.4298788159
H       -4.0443343086    0.2351729407   -0.2914839437
H        0.2992394714    1.5371702575    1.5938707602
H       -0.2585301439    0.3547276441    2.8059050201
H        1.1536356163   -0.0435592347    1.7315347956
