
  -OEChem-12122420533D

 18 18  0     0  0  0  0  0  0999 V2000
   -0.2127   -2.8123   -1.6709 C   0  0  0  0  0  0  0  0  0  0  0  0
   -0.4779   -1.4532   -1.7127 C   0  0  0  0  0  0  0  0  0  0  0  0
    0.2022   -0.9149   -0.5850 C   0  0  0  0  0  0  0  0  0  0  0  0
    0.2482    0.4985   -0.1475 C   0  0  0  0  0  0  0  0  0  0  0  0
    1.1729   -4.2702   -0.1366 C   0  0  0  0  0  0  0  0  0  0  0  0
    1.0621    2.0265    1.4438 C   0  0  0  0  0  0  0  0  0  0  0  0
    0.8372   -1.8872    0.0924 N   0  0  0  0  0  0  0  0  0  0  0  0
    0.5698   -3.0202   -0.5744 N   0  0  0  0  0  0  0  0  0  0  0  0
   -0.3129    1.4060   -0.7368 O   0  0  0  0  0  0  0  0  0  0  0  0
    0.9807    0.6668    0.9731 O   0  0  0  0  0  0  0  0  0  0  0  0
   -1.6571   -0.5178   -3.1688 I   0  0  0  0  0  0  0  0  0  0  0  0
   -0.5228   -3.6158   -2.3240 H   0  0  0  0  0  0  0  0  0  0  0  0
    2.2029   -4.3450   -0.4973 H   0  0  0  0  0  0  0  0  0  0  0  0
    1.1685   -4.2955    0.9536 H   0  0  0  0  0  0  0  0  0  0  0  0
    0.5880   -5.1054   -0.5256 H   0  0  0  0  0  0  0  0  0  0  0  0
    1.6795    1.9841    2.3409 H   0  0  0  0  0  0  0  0  0  0  0  0
    0.0663    2.4107    1.6782 H   0  0  0  0  0  0  0  0  0  0  0  0
    1.5234    2.6663    0.6876 H   0  0  0  0  0  0  0  0  0  0  0  0
  1  2  2  0  0  0  0
  1  8  1  0  0  0  0
  1 12  1  0  0  0  0
  2  3  1  0  0  0  0
  2 11  1  0  0  0  0
  3  4  1  0  0  0  0
  3  7  2  0  0  0  0
  4  9  2  0  0  0  0
  4 10  1  0  0  0  0
  5  8  1  0  0  0  0
  5 13  1  0  0  0  0
  5 14  1  0  0  0  0
  5 15  1  0  0  0  0
  6 10  1  0  0  0  0
  6 16  1  0  0  0  0
  6 17  1  0  0  0  0
  6 18  1  0  0  0  0
  7  8  1  0  0  0  0
M  END
$$$$
