29
0 1 C14H12INO
C                     9.136523328647    -2.894506757520    -0.885296910204
C                     8.359519878137    -3.321669053223     0.195830017384
C                     8.604932710056    -1.977463834393    -1.799474640367
C                     4.789398007506    -4.142178226013    -1.687272381456
C                     3.490787861337    -4.620985735636     0.293548584912
C                     7.061045502965    -2.835284260412     0.366830669620
C                     7.301155873398    -1.503349465157    -1.642020967059
C                     4.755953817288    -5.491586135259    -2.042200077572
C                     3.467533634490    -5.976492184688    -0.037097952479
C                     4.166810430317    -3.696272796307    -0.513269910879
C                     6.520438821268    -1.936140576515    -0.561308221181
C                     4.105318768412    -6.404309109643    -1.206083844265
C                     4.109791458865    -2.251243570530    -0.105944616684
C                     5.035308922183    -0.011772864703    -0.091210677398
N                     5.187712006482    -1.438582577325    -0.408391935531
O                     3.104660607144    -1.797181763139     0.443790239602
I                     4.076200109756    -8.467203826228    -1.725244973903
H                    10.147850702627    -3.270277918449    -1.014063595875
H                     8.765942639432    -4.028758658430     0.913990168592
H                     9.201108306521    -1.641016980304    -2.643604331178
H                     5.299518959433    -3.440834765633    -2.338444762163
H                     2.977399594683    -4.265210763304     1.181612319330
H                     6.460375974874    -3.159751293883     1.211210925840
H                     6.875526418863    -0.812991998842    -2.365690916676
H                     5.234823256520    -5.824294505815    -2.957286145709
H                     2.953287709164    -6.685677310483     0.603338793194
H                     5.810369006429     0.550708288349    -0.612730492742
H                     4.049871183395     0.327971234377    -0.410324675917
H                     5.129463846329     0.163454622254     0.986995837584
