33
0 1 C14H14IN3O
C                     1.850453244463    -0.863147309034    -0.235737011834
C                     0.477876379987    -0.852236537509    -0.501569538163
C                     2.652437780520    -1.862739342267    -0.795483726318
C                    -0.087075019911    -1.821193533622    -1.333408966545
C                     2.110104494128    -2.820994544227    -1.653329007791
C                     0.731971268940    -2.782480566450    -1.940847015126
C                    -1.088430266318     0.022599682263    -4.781103488111
C                    -0.264043632185    -1.080012935475    -4.613325429836
C                    -1.103171762255    -2.093859536943    -4.085413725298
C                    -0.770786401467    -3.521505545354    -3.772076082333
C                     2.900076405872    -3.964697285531    -2.230919487859
C                     2.065490320220    -5.241277562165    -2.041367507191
C                     0.750236312501    -5.139684655440    -2.818352664045
C                    -3.556191365229     0.412902149940    -4.391721079683
N                    -2.354347669783    -1.642584641332    -3.942522818324
N                     0.216977954888    -3.756522585134    -2.839161324872
N                    -2.322690362836    -0.355656045046    -4.354920757634
O                    -1.310213372533    -4.439572743890    -4.385919191328
I                     1.772450787909    -1.176927137768    -5.091144828021
H                     2.288358689518    -0.114494077785     0.418948242994
H                    -0.161957114249    -0.101186165246    -0.045748142461
H                     3.715993516414    -1.897643336614    -0.569584187624
H                    -1.156799797892    -1.829505288319    -1.508902740766
H                    -0.882753562819     1.012058702177    -5.164705556280
H                     3.082141857243    -3.801785890143    -3.301745875206
H                     3.873738840450    -4.050010097704    -1.739759526902
H                     2.603627194289    -6.128361022259    -2.390779308777
H                     1.871370577122    -5.378175383768    -0.972291886770
H                     0.896281157985    -5.434653467318    -3.860372564957
H                    -0.009134667594    -5.810090690967    -2.403593874694
H                    -4.173022489219     0.105277043758    -5.241010650472
H                    -4.108018148989     0.242668180231    -3.465838828054
H                    -3.312875281588     1.472997717765    -4.481898480367
