
  -OEChem-12122420533D

 20 20  0     0  0  0  0  0  0999 V2000
   -0.2761   -1.3936   -1.8871 C   0  0  0  0  0  0  0  0  0  0  0  0
   -0.2280   -1.0033   -0.5251 C   0  0  0  0  0  0  0  0  0  0  0  0
    0.1481   -2.7264   -1.8600 C   0  0  0  0  0  0  0  0  0  0  0  0
   -0.5704    0.3159    0.0665 C   0  0  0  0  0  0  0  0  0  0  0  0
    0.8879   -4.3061    0.0503 C   0  0  0  0  0  0  0  0  0  0  0  0
   -0.7199    1.5767    2.0463 C   0  0  0  0  0  0  0  0  0  0  0  0
    0.1906   -2.0186    0.2529 N   0  0  0  0  0  0  0  0  0  0  0  0
    0.4166   -3.0545   -0.5516 N   0  0  0  0  0  0  0  0  0  0  0  0
    0.3101   -3.6667   -2.9338 N   0  3  0  0  0  0  0  0  0  0  0  0
    0.0454   -3.2833   -4.0751 O   0  5  0  0  0  0  0  0  0  0  0  0
   -0.9538    1.2699   -0.5843 O   0  0  0  0  0  0  0  0  0  0  0  0
    0.7071   -4.8071   -2.6407 O   0  0  0  0  0  0  0  0  0  0  0  0
   -0.4045    0.3237    1.4025 O   0  0  0  0  0  0  0  0  0  0  0  0
   -0.8476   -0.2392   -3.5288 I   0  0  0  0  0  0  0  0  0  0  0  0
    1.8602   -4.5802   -0.3587 H   0  0  0  0  0  0  0  0  0  0  0  0
    0.9597   -4.1077    1.1186 H   0  0  0  0  0  0  0  0  0  0  0  0
    0.1804   -5.1111   -0.1473 H   0  0  0  0  0  0  0  0  0  0  0  0
   -0.5365    1.4080    3.1068 H   0  0  0  0  0  0  0  0  0  0  0  0
   -1.7651    1.8416    1.8710 H   0  0  0  0  0  0  0  0  0  0  0  0
   -0.0772    2.3728    1.6637 H   0  0  0  0  0  0  0  0  0  0  0  0
  1  2  1  0  0  0  0
  1  3  2  0  0  0  0
  1 14  1  0  0  0  0
  2  4  1  0  0  0  0
  2  7  2  0  0  0  0
  3  8  1  0  0  0  0
  3  9  1  0  0  0  0
  4 11  2  0  0  0  0
  4 13  1  0  0  0  0
  5  8  1  0  0  0  0
  5 15  1  0  0  0  0
  5 16  1  0  0  0  0
  5 17  1  0  0  0  0
  6 13  1  0  0  0  0
  6 18  1  0  0  0  0
  6 19  1  0  0  0  0
  6 20  1  0  0  0  0
  7  8  1  0  0  0  0
  9 10  1  0  0  0  0
  9 12  2  0  0  0  0
M  CHG  2   9   1  10  -1
M  END
$$$$
