
  -OEChem-12102412493D

 31 33  0     0  0  0  0  0  0999 V2000
    0.6821   -1.4190   -0.6269 C   0  0  0  0  0  0  0  0  0  0  0  0
    0.6262   -0.1638   -1.2618 C   0  0  0  0  0  0  0  0  0  0  0  0
    2.0832   -6.6622   -4.7080 C   0  0  0  0  0  0  0  0  0  0  0  0
    2.6205   -4.3659   -5.2434 C   0  0  0  0  0  0  0  0  0  0  0  0
    0.5012   -2.5957   -1.3502 C   0  0  0  0  0  0  0  0  0  0  0  0
    0.3908   -0.0619   -2.6342 C   0  0  0  0  0  0  0  0  0  0  0  0
    3.3406   -6.8295   -4.1273 C   0  0  0  0  0  0  0  0  0  0  0  0
    3.8878   -4.5246   -4.6831 C   0  0  0  0  0  0  0  0  0  0  0  0
    1.7066   -5.4284   -5.2512 C   0  0  0  0  0  0  0  0  0  0  0  0
    0.2659   -2.5141   -2.7305 C   0  0  0  0  0  0  0  0  0  0  0  0
    0.2213   -1.2443   -3.3599 C   0  0  0  0  0  0  0  0  0  0  0  0
    4.2361   -5.7551   -4.1162 C   0  0  0  0  0  0  0  0  0  0  0  0
   -0.1329   -3.2165   -4.7929 C   0  0  0  0  0  0  0  0  0  0  0  0
    0.3612   -5.3306   -5.8968 C   0  0  0  0  0  0  0  0  0  0  0  0
   -1.4875   -3.9487   -6.7162 C   0  0  0  0  0  0  0  0  0  0  0  0
    0.0406   -3.5981   -3.5680 N   0  0  0  0  0  0  0  0  0  0  0  0
   -0.2890   -4.0865   -5.8734 N   0  0  0  0  0  0  0  0  0  0  0  0
   -0.1366   -6.2749   -6.4985 O   0  0  0  0  0  0  0  0  0  0  0  0
   -0.0668   -1.4539   -5.0777 S   0  0  0  0  0  0  0  0  0  0  0  0
    6.1560   -5.9959   -3.2339 I   0  0  0  0  0  0  0  0  0  0  0  0
    0.8678   -1.4688    0.4423 H   0  0  0  0  0  0  0  0  0  0  0  0
    0.7698    0.7411   -0.6778 H   0  0  0  0  0  0  0  0  0  0  0  0
    1.3806   -7.4891   -4.7406 H   0  0  0  0  0  0  0  0  0  0  0  0
    2.3568   -3.4095   -5.6845 H   0  0  0  0  0  0  0  0  0  0  0  0
    0.5389   -3.5707   -0.8738 H   0  0  0  0  0  0  0  0  0  0  0  0
    0.3494    0.9089   -3.1193 H   0  0  0  0  0  0  0  0  0  0  0  0
    3.6182   -7.7846   -3.6936 H   0  0  0  0  0  0  0  0  0  0  0  0
    4.5913   -3.6985   -4.6870 H   0  0  0  0  0  0  0  0  0  0  0  0
   -1.6993   -2.8890   -6.8658 H   0  0  0  0  0  0  0  0  0  0  0  0
   -1.2998   -4.4257   -7.6773 H   0  0  0  0  0  0  0  0  0  0  0  0
   -2.3517   -4.4289   -6.2459 H   0  0  0  0  0  0  0  0  0  0  0  0
  1  2  1  0  0  0  0
  1  5  2  0  0  0  0
  1 21  1  0  0  0  0
  2  6  2  0  0  0  0
  2 22  1  0  0  0  0
  3  7  2  0  0  0  0
  3  9  1  0  0  0  0
  3 23  1  0  0  0  0
  4  8  1  0  0  0  0
  4  9  2  0  0  0  0
  4 24  1  0  0  0  0
  5 10  1  0  0  0  0
  5 25  1  0  0  0  0
  6 11  1  0  0  0  0
  6 26  1  0  0  0  0
  7 12  1  0  0  0  0
  7 27  1  0  0  0  0
  8 12  2  0  0  0  0
  8 28  1  0  0  0  0
  9 14  1  0  0  0  0
 10 11  2  0  0  0  0
 10 16  1  0  0  0  0
 11 19  1  0  0  0  0
 12 20  1  0  0  0  0
 13 16  2  0  0  0  0
 13 17  1  0  0  0  0
 13 19  1  0  0  0  0
 14 17  1  0  0  0  0
 14 18  2  0  0  0  0
 15 17  1  0  0  0  0
 15 29  1  0  0  0  0
 15 30  1  0  0  0  0
 15 31  1  0  0  0  0
M  END
$$$$
