
  -OEChem-12122420533D

 37 39  0     0  0  0  0  0  0999 V2000
    0.1474    1.0946   -1.2701 C   0  0  0  0  0  0  0  0  0  0  0  0
   -0.6930   -0.0096   -1.0928 C   0  0  0  0  0  0  0  0  0  0  0  0
   -0.3318    2.2530   -1.8858 C   0  0  0  0  0  0  0  0  0  0  0  0
   -2.0230    0.0547   -1.5168 C   0  0  0  0  0  0  0  0  0  0  0  0
   -8.0990    1.9458    1.8890 C   0  0  0  0  0  0  0  0  0  0  0  0
   -1.6672    2.3241   -2.2959 C   0  0  0  0  0  0  0  0  0  0  0  0
   -2.5260    1.2288   -2.0815 C   0  0  0  0  0  0  0  0  0  0  0  0
   -7.1494    2.8803    1.6417 C   0  0  0  0  0  0  0  0  0  0  0  0
   -5.9416    2.5145    0.9082 C   0  0  0  0  0  0  0  0  0  0  0  0
   -6.8419    0.1814    0.8124 C   0  0  0  0  0  0  0  0  0  0  0  0
   -3.3060    3.4505   -3.7373 C   0  0  0  0  0  0  0  0  0  0  0  0
   -4.9788    1.2186   -1.6838 C   0  0  0  0  0  0  0  0  0  0  0  0
   -4.0520    2.1192   -3.7562 C   0  0  0  0  0  0  0  0  0  0  0  0
   -9.0246   -0.3509    1.7450 C   0  0  0  0  0  0  0  0  0  0  0  0
   -4.7253    0.7519   -0.2417 C   0  0  0  0  0  0  0  0  0  0  0  0
   -7.9667    0.6358    1.4998 N   0  0  0  0  0  0  0  0  0  0  0  0
   -5.8593    1.1408    0.5859 N   0  0  0  0  0  0  0  0  0  0  0  0
   -2.1883    3.4641   -2.9257 N   0  0  0  0  0  0  0  0  0  0  0  0
   -3.8742    1.3846   -2.5014 N   0  0  0  0  0  0  0  0  0  0  0  0
   -5.0418    3.2770    0.5783 O   0  0  0  0  0  0  0  0  0  0  0  0
   -6.7369   -0.9881    0.4634 O   0  0  0  0  0  0  0  0  0  0  0  0
   -3.6442    4.4167   -4.4041 O   0  0  0  0  0  0  0  0  0  0  0  0
   -6.1172    1.4384   -2.0771 O   0  0  0  0  0  0  0  0  0  0  0  0
   -7.3855    4.8837    2.2430 I   0  0  0  0  0  0  0  0  0  0  0  0
    1.1835    1.0498   -0.9472 H   0  0  0  0  0  0  0  0  0  0  0  0
   -0.3138   -0.9215   -0.6416 H   0  0  0  0  0  0  0  0  0  0  0  0
    0.3262    3.1035   -2.0473 H   0  0  0  0  0  0  0  0  0  0  0  0
   -2.6749   -0.8068   -1.4104 H   0  0  0  0  0  0  0  0  0  0  0  0
   -9.0188    2.1876    2.4099 H   0  0  0  0  0  0  0  0  0  0  0  0
   -5.1120    2.3148   -3.9021 H   0  0  0  0  0  0  0  0  0  0  0  0
   -3.6826    1.5253   -4.6013 H   0  0  0  0  0  0  0  0  0  0  0  0
   -9.4114   -0.7290    0.7964 H   0  0  0  0  0  0  0  0  0  0  0  0
   -8.6269   -1.1903    2.3183 H   0  0  0  0  0  0  0  0  0  0  0  0
   -9.8265    0.1314    2.3046 H   0  0  0  0  0  0  0  0  0  0  0  0
   -3.8206    1.1985    0.1664 H   0  0  0  0  0  0  0  0  0  0  0  0
   -4.6506   -0.3340   -0.2068 H   0  0  0  0  0  0  0  0  0  0  0  0
   -1.6317    4.3119   -2.9624 H   0  0  0  0  0  0  0  0  0  0  0  0
  1  2  1  0  0  0  0
  1  3  2  0  0  0  0
  1 25  1  0  0  0  0
  2  4  2  0  0  0  0
  2 26  1  0  0  0  0
  3  6  1  0  0  0  0
  3 27  1  0  0  0  0
  4  7  1  0  0  0  0
  4 28  1  0  0  0  0
  5  8  2  0  0  0  0
  5 16  1  0  0  0  0
  5 29  1  0  0  0  0
  6  7  2  0  0  0  0
  6 18  1  0  0  0  0
  7 19  1  0  0  0  0
  8  9  1  0  0  0  0
  8 24  1  0  0  0  0
  9 17  1  0  0  0  0
  9 20  2  0  0  0  0
 10 16  1  0  0  0  0
 10 17  1  0  0  0  0
 10 21  2  0  0  0  0
 11 13  1  0  0  0  0
 11 18  1  0  0  0  0
 11 22  2  0  0  0  0
 12 15  1  0  0  0  0
 12 19  1  0  0  0  0
 12 23  2  0  0  0  0
 13 19  1  0  0  0  0
 13 30  1  0  0  0  0
 13 31  1  0  0  0  0
 14 16  1  0  0  0  0
 14 32  1  0  0  0  0
 14 33  1  0  0  0  0
 14 34  1  0  0  0  0
 15 17  1  0  0  0  0
 15 35  1  0  0  0  0
 15 36  1  0  0  0  0
 18 37  1  0  0  0  0
M  END
$$$$
