37
0 1 C15H13IN4O4
C                     0.509462364430     1.592807105459    -1.105670838674
C                    -0.257817311957     0.431431374640    -0.954948468823
C                    -0.065358523828     2.743828531631    -1.645180054463
C                    -1.600818462129     0.421143042517    -1.332722269154
C                    -5.552666266630    -0.533600856979    -6.216081765369
C                    -1.415042674161     2.738958487303    -2.013031205291
C                    -2.189202199339     1.579404306154    -1.850159212438
C                    -4.855657534912    -1.231832490772    -5.287053131881
C                    -4.936328907312    -0.856296575573    -3.877872635234
C                    -6.485970816025     0.979991335809    -4.576835152715
C                    -3.182216570427     3.869598695540    -3.283076185708
C                    -4.528893120915     0.969669464434    -1.528442773315
C                    -3.845712758106     2.497063133345    -3.400357169981
C                    -7.089066489333     1.288071634936    -6.913170021838
C                    -5.870211196510     0.691405411820    -2.219082894345
N                    -6.349173532801     0.536716980485    -5.889855847393
N                    -5.759363562465     0.267417983586    -3.623004438456
N                    -2.027464148580     3.889736544876    -2.548283391506
N                    -3.549167357982     1.626904395607    -2.262734902373
O                    -4.359584512811    -1.414137548293    -2.954737099085
O                    -7.185919000146     1.947984948934    -4.302611278145
O                    -3.644146306297     4.859833192905    -3.836996357471
O                    -4.360520701381     0.595041543244    -0.379350436205
I                    -3.635023444646    -2.864037638623    -5.812482984718
H                     1.555672115867     1.600906797681    -0.813493272538
H                     0.189925283439    -0.470093733707    -0.547294666707
H                     0.525452125905     3.646963455263    -1.780485306666
H                    -2.202055209980    -0.473374563620    -1.221322100016
H                    -5.515811735669    -0.784888354994    -7.270221486022
H                    -4.911586856403     2.695946937160    -3.474468115537
H                    -3.508753840398     2.046262840899    -4.345359171034
H                    -8.159457527881     1.251047968354    -6.702853566641
H                    -6.769717075749     2.331896532855    -6.913736685963
H                    -6.887918616697     0.838448788242    -7.885619661627
H                    -6.520125156768     1.566364294870    -2.192700457584
H                    -6.327864508463    -0.107025043087    -1.634817706323
H                    -1.530455292456     4.774169435698    -2.527735271079
