33
0 1 C14H14IN3O
C                     2.134955883632    -0.910091270280     0.128706714017
C                     0.766048826070    -0.817007432559    -0.150826792391
C                     2.718286602909    -2.168678902615     0.250769661072
C                     0.004077776084    -1.970156828465    -0.312223883690
C                     1.972537903659    -3.345886202673     0.090532970728
C                     0.598843147033    -3.239414133896    -0.201256422757
C                    -3.530014714902    -7.338700456734    -1.688359745372
C                    -2.635385044906    -6.443988944191    -2.255444872451
C                    -2.134948199979    -5.682474828144    -1.168095048411
C                    -1.225877156902    -4.494245899226    -1.240326287722
C                     2.660875934486    -4.685309162382     0.272516177377
C                     1.776471783278    -5.860794355752    -0.143878023560
C                     0.345583585474    -5.621798305522     0.336796105756
C                    -4.390479677572    -7.674416210172     0.665824239317
N                    -2.695659440474    -6.081277479939    -0.016374653228
N                    -0.196361507099    -4.423066505457    -0.320977146809
N                    -3.533769650553    -7.086111410327    -0.351036116326
O                    -1.458797681242    -3.630244667511    -2.082943060887
I                    -2.120515547738    -6.339749357647    -4.282223482537
H                     2.735803527481    -0.012948871093     0.252020561913
H                     0.288969778553     0.155112021817    -0.242814423645
H                     3.780450433403    -2.253195853430     0.473303807335
H                    -1.051955806304    -1.892715098667    -0.534601435833
H                    -4.139814465498    -8.111766648877    -2.134441094750
H                     3.602180770164    -4.694354938788    -0.287603977464
H                     2.933081648886    -4.795208383863     1.330729742327
H                     1.763615989165    -5.967815874519    -1.234433349137
H                     2.159199073893    -6.797839246091     0.274760280342
H                    -0.290320355214    -6.471134787872     0.106842974376
H                     0.321410871034    -5.472901485920     1.422994688899
H                    -3.812200224651    -7.803663436376     1.581880352782
H                    -5.248309729325    -7.026238014666     0.868216440413
H                    -4.743055387367    -8.646581602422     0.316577488103
