18
0 1 C6H7IN2O2
C                    -0.212701134088    -2.812317868925    -1.670940305826
C                    -0.477924318150    -1.453151355112    -1.712657779558
C                     0.202199384796    -0.914873169561    -0.584954234959
C                     0.248199135145     0.498490562897    -0.147468416849
C                     1.172939395894    -4.270213525277    -0.136605964495
C                     1.062081622814     2.026510767042     1.443847197349
N                     0.837162189106    -1.887214836031     0.092368040876
N                     0.569814893012    -3.020211518014    -0.574447977078
O                    -0.312943067269     1.405960045854    -0.736751686524
O                     0.980669195940     0.666766127126     0.973122774367
I                    -1.657056939529    -0.517813325866    -3.168825148432
H                    -0.522848415275    -3.615844083409    -2.324020613800
H                     2.202915646833    -4.345042442598    -0.497305592244
H                     1.168546484198    -4.295498030453     0.953627324998
H                     0.587959225960    -5.105443619595    -0.525551468343
H                     1.679482003897     1.984128085805     2.340903906871
H                     0.066315239183     2.410664491870     1.678211084282
H                     1.523382616781     2.666283014307     0.687555451817
