
  -OEChem-12122420533D

 29 30  0     0  0  0  0  0  0999 V2000
    9.1365   -2.8945   -0.8853 C   0  0  0  0  0  0  0  0  0  0  0  0
    8.3595   -3.3217    0.1958 C   0  0  0  0  0  0  0  0  0  0  0  0
    8.6049   -1.9775   -1.7995 C   0  0  0  0  0  0  0  0  0  0  0  0
    4.7894   -4.1422   -1.6873 C   0  0  0  0  0  0  0  0  0  0  0  0
    3.4908   -4.6210    0.2935 C   0  0  0  0  0  0  0  0  0  0  0  0
    7.0610   -2.8353    0.3668 C   0  0  0  0  0  0  0  0  0  0  0  0
    7.3012   -1.5033   -1.6420 C   0  0  0  0  0  0  0  0  0  0  0  0
    4.7560   -5.4916   -2.0422 C   0  0  0  0  0  0  0  0  0  0  0  0
    3.4675   -5.9765   -0.0371 C   0  0  0  0  0  0  0  0  0  0  0  0
    4.1668   -3.6963   -0.5133 C   0  0  0  0  0  0  0  0  0  0  0  0
    6.5204   -1.9361   -0.5613 C   0  0  0  0  0  0  0  0  0  0  0  0
    4.1053   -6.4043   -1.2061 C   0  0  0  0  0  0  0  0  0  0  0  0
    4.1098   -2.2512   -0.1059 C   0  0  0  0  0  0  0  0  0  0  0  0
    5.0353   -0.0118   -0.0912 C   0  0  0  0  0  0  0  0  0  0  0  0
    5.1877   -1.4386   -0.4084 N   0  0  0  0  0  0  0  0  0  0  0  0
    3.1047   -1.7972    0.4438 O   0  0  0  0  0  0  0  0  0  0  0  0
    4.0762   -8.4672   -1.7252 I   0  0  0  0  0  0  0  0  0  0  0  0
   10.1479   -3.2703   -1.0141 H   0  0  0  0  0  0  0  0  0  0  0  0
    8.7659   -4.0288    0.9140 H   0  0  0  0  0  0  0  0  0  0  0  0
    9.2011   -1.6410   -2.6436 H   0  0  0  0  0  0  0  0  0  0  0  0
    5.2995   -3.4408   -2.3384 H   0  0  0  0  0  0  0  0  0  0  0  0
    2.9774   -4.2652    1.1816 H   0  0  0  0  0  0  0  0  0  0  0  0
    6.4604   -3.1598    1.2112 H   0  0  0  0  0  0  0  0  0  0  0  0
    6.8755   -0.8130   -2.3657 H   0  0  0  0  0  0  0  0  0  0  0  0
    5.2348   -5.8243   -2.9573 H   0  0  0  0  0  0  0  0  0  0  0  0
    2.9533   -6.6857    0.6033 H   0  0  0  0  0  0  0  0  0  0  0  0
    5.8104    0.5507   -0.6127 H   0  0  0  0  0  0  0  0  0  0  0  0
    4.0499    0.3280   -0.4103 H   0  0  0  0  0  0  0  0  0  0  0  0
    5.1295    0.1635    0.9870 H   0  0  0  0  0  0  0  0  0  0  0  0
  1  2  1  0  0  0  0
  1  3  2  0  0  0  0
  1 18  1  0  0  0  0
  2  6  2  0  0  0  0
  2 19  1  0  0  0  0
  3  7  1  0  0  0  0
  3 20  1  0  0  0  0
  4  8  2  0  0  0  0
  4 10  1  0  0  0  0
  4 21  1  0  0  0  0
  5  9  1  0  0  0  0
  5 10  2  0  0  0  0
  5 22  1  0  0  0  0
  6 11  1  0  0  0  0
  6 23  1  0  0  0  0
  7 11  2  0  0  0  0
  7 24  1  0  0  0  0
  8 12  1  0  0  0  0
  8 25  1  0  0  0  0
  9 12  2  0  0  0  0
  9 26  1  0  0  0  0
 10 13  1  0  0  0  0
 11 15  1  0  0  0  0
 12 17  1  0  0  0  0
 13 15  1  0  0  0  0
 13 16  2  0  0  0  0
 14 15  1  0  0  0  0
 14 27  1  0  0  0  0
 14 28  1  0  0  0  0
 14 29  1  0  0  0  0
M  END
$$$$
