
  -OEChem-12102412493D

 37 39  0     0  0  0  0  0  0999 V2000
    0.3885    1.4791   -0.7524 C   0  0  0  0  0  0  0  0  0  0  0  0
   -0.7860    0.8077   -0.3939 C   0  0  0  0  0  0  0  0  0  0  0  0
    0.4317    2.2459   -1.9189 C   0  0  0  0  0  0  0  0  0  0  0  0
   -1.9156    0.8821   -1.2131 C   0  0  0  0  0  0  0  0  0  0  0  0
   -6.6814   -3.1218   -3.4062 C   0  0  0  0  0  0  0  0  0  0  0  0
   -0.6914    2.3099   -2.7501 C   0  0  0  0  0  0  0  0  0  0  0  0
   -1.8556    1.5940   -2.4153 C   0  0  0  0  0  0  0  0  0  0  0  0
   -6.3356   -2.4273   -2.2942 C   0  0  0  0  0  0  0  0  0  0  0  0
   -5.1364   -1.5987   -2.3016 C   0  0  0  0  0  0  0  0  0  0  0  0
   -4.7544   -2.3550   -4.6532 C   0  0  0  0  0  0  0  0  0  0  0  0
   -1.8591    3.5856   -4.4937 C   0  0  0  0  0  0  0  0  0  0  0  0
   -3.7527    0.6881   -3.7710 C   0  0  0  0  0  0  0  0  0  0  0  0
   -3.1477    3.0536   -3.8728 C   0  0  0  0  0  0  0  0  0  0  0  0
   -6.3340   -3.8431   -5.7532 C   0  0  0  0  0  0  0  0  0  0  0  0
   -3.2562   -0.7530   -3.5863 C   0  0  0  0  0  0  0  0  0  0  0  0
   -5.9297   -3.1009   -4.5531 N   0  0  0  0  0  0  0  0  0  0  0  0
   -4.3988   -1.6557   -3.5005 N   0  0  0  0  0  0  0  0  0  0  0  0
   -0.7046    3.0857   -3.9229 N   0  0  0  0  0  0  0  0  0  0  0  0
   -2.9482    1.7137   -3.3163 N   0  0  0  0  0  0  0  0  0  0  0  0
   -4.7470   -0.8936   -1.3748 O   0  0  0  0  0  0  0  0  0  0  0  0
   -4.0893   -2.3498   -5.6799 O   0  0  0  0  0  0  0  0  0  0  0  0
   -1.8418    4.4002   -5.4049 O   0  0  0  0  0  0  0  0  0  0  0  0
   -4.7786    0.8991   -4.4073 O   0  0  0  0  0  0  0  0  0  0  0  0
   -7.5111   -2.4746   -0.5485 I   0  0  0  0  0  0  0  0  0  0  0  0
    1.2651    1.4275   -0.1129 H   0  0  0  0  0  0  0  0  0  0  0  0
   -0.8324    0.2410    0.5314 H   0  0  0  0  0  0  0  0  0  0  0  0
    1.3306    2.7977   -2.1842 H   0  0  0  0  0  0  0  0  0  0  0  0
   -2.8418    0.3892   -0.9333 H   0  0  0  0  0  0  0  0  0  0  0  0
   -7.5763   -3.7331   -3.4442 H   0  0  0  0  0  0  0  0  0  0  0  0
   -3.4749    3.7527   -3.0924 H   0  0  0  0  0  0  0  0  0  0  0  0
   -3.9184    3.0088   -4.6389 H   0  0  0  0  0  0  0  0  0  0  0  0
   -6.4903   -3.1522   -6.5838 H   0  0  0  0  0  0  0  0  0  0  0  0
   -5.5545   -4.5542   -6.0332 H   0  0  0  0  0  0  0  0  0  0  0  0
   -7.2601   -4.3761   -5.5363 H   0  0  0  0  0  0  0  0  0  0  0  0
   -2.6178   -0.8968   -2.7212 H   0  0  0  0  0  0  0  0  0  0  0  0
   -2.7006   -1.0114   -4.4896 H   0  0  0  0  0  0  0  0  0  0  0  0
    0.1591    3.5070   -4.2492 H   0  0  0  0  0  0  0  0  0  0  0  0
  1  2  1  0  0  0  0
  1  3  2  0  0  0  0
  1 25  1  0  0  0  0
  2  4  2  0  0  0  0
  2 26  1  0  0  0  0
  3  6  1  0  0  0  0
  3 27  1  0  0  0  0
  4  7  1  0  0  0  0
  4 28  1  0  0  0  0
  5  8  2  0  0  0  0
  5 16  1  0  0  0  0
  5 29  1  0  0  0  0
  6  7  2  0  0  0  0
  6 18  1  0  0  0  0
  7 19  1  0  0  0  0
  8  9  1  0  0  0  0
  8 24  1  0  0  0  0
  9 17  1  0  0  0  0
  9 20  2  0  0  0  0
 10 16  1  0  0  0  0
 10 17  1  0  0  0  0
 10 21  2  0  0  0  0
 11 13  1  0  0  0  0
 11 18  1  0  0  0  0
 11 22  2  0  0  0  0
 12 15  1  0  0  0  0
 12 19  1  0  0  0  0
 12 23  2  0  0  0  0
 13 19  1  0  0  0  0
 13 30  1  0  0  0  0
 13 31  1  0  0  0  0
 14 16  1  0  0  0  0
 14 32  1  0  0  0  0
 14 33  1  0  0  0  0
 14 34  1  0  0  0  0
 15 17  1  0  0  0  0
 15 35  1  0  0  0  0
 15 36  1  0  0  0  0
 18 37  1  0  0  0  0
M  END
$$$$
