29
0 1 C14H12INO
C                     9.083037398259    -3.085685836400    -0.113845295941
C                     8.167876679093    -3.766262245158    -0.924474550288
C                     8.713474972999    -1.877680681977     0.485955624801
C                     2.429568712708    -1.521333462701    -2.061355075491
C                     1.756132783102    -1.585987265363     0.257784915728
C                     6.894265494077    -3.237329466733    -1.143780636189
C                     7.435972070607    -1.351207085303     0.275480855658
C                     1.119936075122    -1.219126914193    -2.441962344613
C                     0.448614182013    -1.259551343411    -0.104679512727
C                     2.760818199905    -1.699160823753    -0.711792604166
C                     6.528030265238    -2.027249165046    -0.545663403870
C                     0.138069060106    -1.077574576849    -1.456835301641
C                     4.130109413664    -2.138733446901    -0.270037971707
C                     5.170549090881    -0.182143155753    -1.477208259119
N                     5.223614394180    -1.477554690272    -0.794898197026
O                     4.246943005064    -3.076378551200     0.517505529942
I                    -1.854581509345    -0.593301571532    -2.022410432133
H                    10.074947196588    -3.496843902922     0.053704909210
H                     8.446192654575    -4.709061974705    -1.387916330661
H                     9.414363372729    -1.349994258762     1.127426096987
H                     3.189395732432    -1.637116436251    -2.829434920737
H                     2.004766716702    -1.766153351556     1.299414289150
H                     6.174635796588    -3.763271076266    -1.764342919899
H                     7.139124531462    -0.425410401629     0.761445285968
H                     0.871940630868    -1.097937681047    -3.491430928067
H                    -0.318852944817    -1.159905613026     0.656003646930
H                     5.368291136655    -0.287633203922    -2.550708615955
H                     4.195480849416     0.282030958254    -1.338740273481
H                     5.928341101431     0.484326669177    -1.057499091047
