28
0 1 C11H9IN6O
C                     2.673573795661    -3.205304963719     1.517013974343
C                     1.683259254951    -1.511207349852     0.098923784501
C                     1.459437699911    -3.351459539390     2.190310328168
C                     0.460334906885    -1.672097410007     0.751667080676
C                     2.796857670960    -2.275634639362     0.474875146145
C                     0.354110964010    -2.586539305433     1.805266617232
C                     7.243261637548    -3.516404689801    -0.057304028632
C                     7.668164113723    -3.128954990008     1.255176471366
C                     5.263913519527    -2.493548084307     0.248270478817
C                     5.742731194644    -2.007513236385     1.580805604450
C                     5.396378582388    -0.584040853927     3.551843703475
N                     6.008557079799    -3.201512191897    -0.556881389225
N                     6.913105123545    -2.349261805821     2.079615160661
N                     8.186030246183    -4.230655845996    -0.636937810080
N                     8.876075111644    -3.610858191605     1.478133112714
N                     4.022488173072    -2.078914784040    -0.228661542103
N                     4.954352053386    -1.162218593696     2.288923268684
O                     9.187596671340    -4.287988534866     0.307582433332
I                    -1.497083234384    -2.816029523173     2.822033779476
H                     3.519629601559    -3.823265785802     1.801510411555
H                     1.779227537104    -0.782865045929    -0.702180015466
H                     1.378346832861    -4.071392328418     2.998142309446
H                    -0.394890455261    -1.077518309436     0.447712151831
H                     4.592861554421     0.042440059922     3.942355333737
H                     5.623125312630    -1.374744956426     4.271650781165
H                     6.301302082658     0.017688012855     3.415915038184
H                     3.952123071903    -2.260296194490    -1.227514484110
H                     4.115640735038    -0.805710668593     1.856196589942
