37
0 1 C15H13IN4O4
C                     0.374894949303     1.452008739804    -0.757132809207
C                    -0.780702621467     0.752230421567    -0.391676502763
C                     0.387849196837     2.230955884667    -1.916251916728
C                    -1.920883064005     0.810515597666    -1.197466251599
C                    -6.598302284136    -3.309335731645    -3.302670781719
C                    -0.746010382673     2.279022770539    -2.733826648424
C                    -1.890663266951     1.534791201184    -2.393406991134
C                    -5.879021356763    -3.373454954196    -4.448530512835
C                    -4.675257589435    -2.558784251781    -4.612429908534
C                    -5.111837180988    -1.692509770020    -2.307343218290
C                    -1.962489971451     3.549633044511    -4.446390451402
C                    -3.791610510896     0.599337308588    -3.723464604319
C                    -3.232504667056     2.977204756926    -3.823163469389
C                    -7.045307312336    -2.424958748395    -1.025627943589
C                    -3.255828554791    -0.830228284863    -3.568400875215
N                    -6.237994538571    -2.504732974919    -2.248138146987
N                    -4.367921001251    -1.769566798570    -3.475142700061
N                    -0.790083631636     3.066303498660    -3.897778345111
N                    -2.995595982793     1.637955340883    -3.279988410224
O                    -3.960716830428    -2.540154409326    -5.603604325169
O                    -4.797651558002    -0.959351519555    -1.372007258127
O                    -1.973634422341     4.381813987989    -5.341342168064
O                    -4.838417475858     0.796940323633    -4.328319246800
I                    -6.457208029044    -4.622447926354    -6.041506748622
H                     1.260122791298     1.412683935538    -0.128816978673
H                    -0.803375393687     0.175715049671     0.528414650434
H                     1.271664215055     2.804075764532    -2.186609156922
H                    -2.834255264742     0.296968535514    -0.912342876978
H                    -7.498834798914    -3.895350035560    -3.156726210024
H                    -3.574477681714     3.661862079789    -3.036194304934
H                    -4.005887169584     2.918889920445    -4.585900852644
H                    -6.433043104093    -2.673885698001    -0.156986071158
H                    -7.436140544755    -1.413177245117    -0.899039144939
H                    -7.871283150301    -3.131660075116    -1.108561961323
H                    -2.586626762550    -0.966018046429    -2.724812654401
H                    -2.719214345812    -1.067314269951    -4.489473959061
H                     0.059189979168     3.514961655298    -4.225735715045
