
  -OEChem-12122420533D

 37 39  0     0  0  0  0  0  0999 V2000
    1.0712    0.7991    1.4847 C   0  0  0  0  0  0  0  0  0  0  0  0
    0.0884   -0.1086    1.0719 C   0  0  0  0  0  0  0  0  0  0  0  0
    0.8866    1.5462    2.6483 C   0  0  0  0  0  0  0  0  0  0  0  0
   -1.0828   -0.2637    1.8140 C   0  0  0  0  0  0  0  0  0  0  0  0
   -3.6996   -3.4001    6.6819 C   0  0  0  0  0  0  0  0  0  0  0  0
   -0.2925    1.4009    3.3870 C   0  0  0  0  0  0  0  0  0  0  0  0
   -1.2847    0.5011    2.9673 C   0  0  0  0  0  0  0  0  0  0  0  0
   -3.4185   -3.5641    5.3664 C   0  0  0  0  0  0  0  0  0  0  0  0
   -3.7988   -2.5337    4.4036 C   0  0  0  0  0  0  0  0  0  0  0  0
   -4.7339   -1.2422    6.3322 C   0  0  0  0  0  0  0  0  0  0  0  0
   -1.4139    1.8039    5.5305 C   0  0  0  0  0  0  0  0  0  0  0  0
   -3.6968    0.2061    3.1777 C   0  0  0  0  0  0  0  0  0  0  0  0
   -2.2663    0.5763    5.2077 C   0  0  0  0  0  0  0  0  0  0  0  0
   -4.6257   -2.1209    8.5979 C   0  0  0  0  0  0  0  0  0  0  0  0
   -4.8332   -0.3366    4.0536 C   0  0  0  0  0  0  0  0  0  0  0  0
   -4.3385   -2.2849    7.1662 N   0  0  0  0  0  0  0  0  0  0  0  0
   -4.4341   -1.4071    4.9800 N   0  0  0  0  0  0  0  0  0  0  0  0
   -0.5139    2.1511    4.5592 N   0  0  0  0  0  0  0  0  0  0  0  0
   -2.4518    0.3793    3.7703 N   0  0  0  0  0  0  0  0  0  0  0  0
   -3.6033   -2.5751    3.1970 O   0  0  0  0  0  0  0  0  0  0  0  0
   -5.2872   -0.2447    6.7807 O   0  0  0  0  0  0  0  0  0  0  0  0
   -1.5181    2.4011    6.5950 O   0  0  0  0  0  0  0  0  0  0  0  0
   -3.9136    0.4483    2.0015 O   0  0  0  0  0  0  0  0  0  0  0  0
   -2.4309   -5.2788    4.6492 I   0  0  0  0  0  0  0  0  0  0  0  0
    1.9841    0.9190    0.9083 H   0  0  0  0  0  0  0  0  0  0  0  0
    0.2346   -0.7010    0.1735 H   0  0  0  0  0  0  0  0  0  0  0  0
    1.6502    2.2432    2.9861 H   0  0  0  0  0  0  0  0  0  0  0  0
   -1.8482   -0.9648    1.5033 H   0  0  0  0  0  0  0  0  0  0  0  0
   -3.4316   -4.1445    7.4235 H   0  0  0  0  0  0  0  0  0  0  0  0
   -1.7799   -0.2952    5.6699 H   0  0  0  0  0  0  0  0  0  0  0  0
   -3.2172    0.7446    5.7064 H   0  0  0  0  0  0  0  0  0  0  0  0
   -4.1279   -1.2271    8.9785 H   0  0  0  0  0  0  0  0  0  0  0  0
   -5.7007   -2.0142    8.7534 H   0  0  0  0  0  0  0  0  0  0  0  0
   -4.2615   -3.0016    9.1270 H   0  0  0  0  0  0  0  0  0  0  0  0
   -5.5714   -0.7229    3.3506 H   0  0  0  0  0  0  0  0  0  0  0  0
   -5.2904    0.4552    4.6475 H   0  0  0  0  0  0  0  0  0  0  0  0
    0.1160    2.9124    4.7902 H   0  0  0  0  0  0  0  0  0  0  0  0
  1  2  1  0  0  0  0
  1  3  2  0  0  0  0
  1 25  1  0  0  0  0
  2  4  2  0  0  0  0
  2 26  1  0  0  0  0
  3  6  1  0  0  0  0
  3 27  1  0  0  0  0
  4  7  1  0  0  0  0
  4 28  1  0  0  0  0
  5  8  2  0  0  0  0
  5 16  1  0  0  0  0
  5 29  1  0  0  0  0
  6  7  2  0  0  0  0
  6 18  1  0  0  0  0
  7 19  1  0  0  0  0
  8  9  1  0  0  0  0
  8 24  1  0  0  0  0
  9 17  1  0  0  0  0
  9 20  2  0  0  0  0
 10 16  1  0  0  0  0
 10 17  1  0  0  0  0
 10 21  2  0  0  0  0
 11 13  1  0  0  0  0
 11 18  1  0  0  0  0
 11 22  2  0  0  0  0
 12 15  1  0  0  0  0
 12 19  1  0  0  0  0
 12 23  2  0  0  0  0
 13 19  1  0  0  0  0
 13 30  1  0  0  0  0
 13 31  1  0  0  0  0
 14 16  1  0  0  0  0
 14 32  1  0  0  0  0
 14 33  1  0  0  0  0
 14 34  1  0  0  0  0
 15 17  1  0  0  0  0
 15 35  1  0  0  0  0
 15 36  1  0  0  0  0
 18 37  1  0  0  0  0
M  END
$$$$
