
  -OEChem-12102412493D

 31 33  0     0  0  0  0  0  0999 V2000
    0.2080    0.1787   -1.6600 C   0  0  0  0  0  0  0  0  0  0  0  0
    0.6881   -0.7799   -0.7468 C   0  0  0  0  0  0  0  0  0  0  0  0
    2.8041   -3.8331   -5.8595 C   0  0  0  0  0  0  0  0  0  0  0  0
    2.7396   -6.2480   -5.7009 C   0  0  0  0  0  0  0  0  0  0  0  0
   -0.1101   -0.1755   -2.9689 C   0  0  0  0  0  0  0  0  0  0  0  0
    0.8575   -2.1120   -1.1266 C   0  0  0  0  0  0  0  0  0  0  0  0
    4.1659   -3.8441   -5.5578 C   0  0  0  0  0  0  0  0  0  0  0  0
    4.0959   -6.2707   -5.3762 C   0  0  0  0  0  0  0  0  0  0  0  0
    2.0800   -5.0325   -5.9217 C   0  0  0  0  0  0  0  0  0  0  0  0
    0.0513   -1.5108   -3.3697 C   0  0  0  0  0  0  0  0  0  0  0  0
    0.5272   -2.4682   -2.4379 C   0  0  0  0  0  0  0  0  0  0  0  0
    4.8013   -5.0643   -5.3037 C   0  0  0  0  0  0  0  0  0  0  0  0
    0.0690   -3.2675   -4.7207 C   0  0  0  0  0  0  0  0  0  0  0  0
    0.6326   -5.0742   -6.3021 C   0  0  0  0  0  0  0  0  0  0  0  0
   -1.5143   -3.8975   -6.4813 C   0  0  0  0  0  0  0  0  0  0  0  0
   -0.1950   -1.9997   -4.6450 N   0  0  0  0  0  0  0  0  0  0  0  0
   -0.1797   -4.0269   -5.8695 N   0  0  0  0  0  0  0  0  0  0  0  0
    0.1833   -5.9631   -7.0195 O   0  0  0  0  0  0  0  0  0  0  0  0
    0.6172   -4.0372   -3.2100 S   0  0  0  0  0  0  0  0  0  0  0  0
    6.8693   -5.0862   -4.8118 I   0  0  0  0  0  0  0  0  0  0  0  0
    0.0878    1.2093   -1.3380 H   0  0  0  0  0  0  0  0  0  0  0  0
    0.9306   -0.4807    0.2690 H   0  0  0  0  0  0  0  0  0  0  0  0
    2.3128   -2.8847   -6.0545 H   0  0  0  0  0  0  0  0  0  0  0  0
    2.1798   -7.1747   -5.7833 H   0  0  0  0  0  0  0  0  0  0  0  0
   -0.4749    0.5556   -3.6843 H   0  0  0  0  0  0  0  0  0  0  0  0
    1.2297   -2.8478   -0.4198 H   0  0  0  0  0  0  0  0  0  0  0  0
    4.7211   -2.9128   -5.5184 H   0  0  0  0  0  0  0  0  0  0  0  0
    4.5961   -7.2151   -5.1885 H   0  0  0  0  0  0  0  0  0  0  0  0
   -1.8309   -2.8594   -6.3918 H   0  0  0  0  0  0  0  0  0  0  0  0
   -1.4468   -4.1858   -7.5295 H   0  0  0  0  0  0  0  0  0  0  0  0
   -2.2333   -4.5544   -5.9807 H   0  0  0  0  0  0  0  0  0  0  0  0
  1  2  1  0  0  0  0
  1  5  2  0  0  0  0
  1 21  1  0  0  0  0
  2  6  2  0  0  0  0
  2 22  1  0  0  0  0
  3  7  2  0  0  0  0
  3  9  1  0  0  0  0
  3 23  1  0  0  0  0
  4  8  1  0  0  0  0
  4  9  2  0  0  0  0
  4 24  1  0  0  0  0
  5 10  1  0  0  0  0
  5 25  1  0  0  0  0
  6 11  1  0  0  0  0
  6 26  1  0  0  0  0
  7 12  1  0  0  0  0
  7 27  1  0  0  0  0
  8 12  2  0  0  0  0
  8 28  1  0  0  0  0
  9 14  1  0  0  0  0
 10 11  2  0  0  0  0
 10 16  1  0  0  0  0
 11 19  1  0  0  0  0
 12 20  1  0  0  0  0
 13 16  2  0  0  0  0
 13 17  1  0  0  0  0
 13 19  1  0  0  0  0
 14 17  1  0  0  0  0
 14 18  2  0  0  0  0
 15 17  1  0  0  0  0
 15 29  1  0  0  0  0
 15 30  1  0  0  0  0
 15 31  1  0  0  0  0
M  END
$$$$
