
  -OEChem-12102412493D

 37 39  0     0  0  0  0  0  0999 V2000
    0.5095    1.5928   -1.1057 C   0  0  0  0  0  0  0  0  0  0  0  0
   -0.2578    0.4314   -0.9549 C   0  0  0  0  0  0  0  0  0  0  0  0
   -0.0654    2.7438   -1.6452 C   0  0  0  0  0  0  0  0  0  0  0  0
   -1.6008    0.4211   -1.3327 C   0  0  0  0  0  0  0  0  0  0  0  0
   -5.5527   -0.5336   -6.2161 C   0  0  0  0  0  0  0  0  0  0  0  0
   -1.4150    2.7390   -2.0130 C   0  0  0  0  0  0  0  0  0  0  0  0
   -2.1892    1.5794   -1.8502 C   0  0  0  0  0  0  0  0  0  0  0  0
   -4.8557   -1.2318   -5.2871 C   0  0  0  0  0  0  0  0  0  0  0  0
   -4.9363   -0.8563   -3.8779 C   0  0  0  0  0  0  0  0  0  0  0  0
   -6.4860    0.9800   -4.5768 C   0  0  0  0  0  0  0  0  0  0  0  0
   -3.1822    3.8696   -3.2831 C   0  0  0  0  0  0  0  0  0  0  0  0
   -4.5289    0.9697   -1.5284 C   0  0  0  0  0  0  0  0  0  0  0  0
   -3.8457    2.4971   -3.4004 C   0  0  0  0  0  0  0  0  0  0  0  0
   -7.0891    1.2881   -6.9132 C   0  0  0  0  0  0  0  0  0  0  0  0
   -5.8702    0.6914   -2.2191 C   0  0  0  0  0  0  0  0  0  0  0  0
   -6.3492    0.5367   -5.8899 N   0  0  0  0  0  0  0  0  0  0  0  0
   -5.7594    0.2674   -3.6230 N   0  0  0  0  0  0  0  0  0  0  0  0
   -2.0275    3.8897   -2.5483 N   0  0  0  0  0  0  0  0  0  0  0  0
   -3.5492    1.6269   -2.2627 N   0  0  0  0  0  0  0  0  0  0  0  0
   -4.3596   -1.4141   -2.9547 O   0  0  0  0  0  0  0  0  0  0  0  0
   -7.1859    1.9480   -4.3026 O   0  0  0  0  0  0  0  0  0  0  0  0
   -3.6441    4.8598   -3.8370 O   0  0  0  0  0  0  0  0  0  0  0  0
   -4.3605    0.5950   -0.3794 O   0  0  0  0  0  0  0  0  0  0  0  0
   -3.6350   -2.8640   -5.8125 I   0  0  0  0  0  0  0  0  0  0  0  0
    1.5557    1.6009   -0.8135 H   0  0  0  0  0  0  0  0  0  0  0  0
    0.1899   -0.4701   -0.5473 H   0  0  0  0  0  0  0  0  0  0  0  0
    0.5255    3.6470   -1.7805 H   0  0  0  0  0  0  0  0  0  0  0  0
   -2.2021   -0.4734   -1.2213 H   0  0  0  0  0  0  0  0  0  0  0  0
   -5.5158   -0.7849   -7.2702 H   0  0  0  0  0  0  0  0  0  0  0  0
   -4.9116    2.6959   -3.4745 H   0  0  0  0  0  0  0  0  0  0  0  0
   -3.5088    2.0463   -4.3454 H   0  0  0  0  0  0  0  0  0  0  0  0
   -8.1595    1.2510   -6.7029 H   0  0  0  0  0  0  0  0  0  0  0  0
   -6.7697    2.3319   -6.9137 H   0  0  0  0  0  0  0  0  0  0  0  0
   -6.8879    0.8384   -7.8856 H   0  0  0  0  0  0  0  0  0  0  0  0
   -6.5201    1.5664   -2.1927 H   0  0  0  0  0  0  0  0  0  0  0  0
   -6.3279   -0.1070   -1.6348 H   0  0  0  0  0  0  0  0  0  0  0  0
   -1.5305    4.7742   -2.5277 H   0  0  0  0  0  0  0  0  0  0  0  0
  1  2  1  0  0  0  0
  1  3  2  0  0  0  0
  1 25  1  0  0  0  0
  2  4  2  0  0  0  0
  2 26  1  0  0  0  0
  3  6  1  0  0  0  0
  3 27  1  0  0  0  0
  4  7  1  0  0  0  0
  4 28  1  0  0  0  0
  5  8  2  0  0  0  0
  5 16  1  0  0  0  0
  5 29  1  0  0  0  0
  6  7  2  0  0  0  0
  6 18  1  0  0  0  0
  7 19  1  0  0  0  0
  8  9  1  0  0  0  0
  8 24  1  0  0  0  0
  9 17  1  0  0  0  0
  9 20  2  0  0  0  0
 10 16  1  0  0  0  0
 10 17  1  0  0  0  0
 10 21  2  0  0  0  0
 11 13  1  0  0  0  0
 11 18  1  0  0  0  0
 11 22  2  0  0  0  0
 12 15  1  0  0  0  0
 12 19  1  0  0  0  0
 12 23  2  0  0  0  0
 13 19  1  0  0  0  0
 13 30  1  0  0  0  0
 13 31  1  0  0  0  0
 14 16  1  0  0  0  0
 14 32  1  0  0  0  0
 14 33  1  0  0  0  0
 14 34  1  0  0  0  0
 15 17  1  0  0  0  0
 15 35  1  0  0  0  0
 15 36  1  0  0  0  0
 18 37  1  0  0  0  0
M  END
$$$$
