
  -OEChem-12102412493D

 37 39  0     0  0  0  0  0  0999 V2000
    0.3749    1.4520   -0.7571 C   0  0  0  0  0  0  0  0  0  0  0  0
   -0.7807    0.7522   -0.3917 C   0  0  0  0  0  0  0  0  0  0  0  0
    0.3878    2.2310   -1.9163 C   0  0  0  0  0  0  0  0  0  0  0  0
   -1.9209    0.8105   -1.1975 C   0  0  0  0  0  0  0  0  0  0  0  0
   -6.5983   -3.3093   -3.3027 C   0  0  0  0  0  0  0  0  0  0  0  0
   -0.7460    2.2790   -2.7338 C   0  0  0  0  0  0  0  0  0  0  0  0
   -1.8907    1.5348   -2.3934 C   0  0  0  0  0  0  0  0  0  0  0  0
   -5.8790   -3.3735   -4.4485 C   0  0  0  0  0  0  0  0  0  0  0  0
   -4.6753   -2.5588   -4.6124 C   0  0  0  0  0  0  0  0  0  0  0  0
   -5.1118   -1.6925   -2.3073 C   0  0  0  0  0  0  0  0  0  0  0  0
   -1.9625    3.5496   -4.4464 C   0  0  0  0  0  0  0  0  0  0  0  0
   -3.7916    0.5993   -3.7235 C   0  0  0  0  0  0  0  0  0  0  0  0
   -3.2325    2.9772   -3.8232 C   0  0  0  0  0  0  0  0  0  0  0  0
   -7.0453   -2.4250   -1.0256 C   0  0  0  0  0  0  0  0  0  0  0  0
   -3.2558   -0.8302   -3.5684 C   0  0  0  0  0  0  0  0  0  0  0  0
   -6.2380   -2.5047   -2.2481 N   0  0  0  0  0  0  0  0  0  0  0  0
   -4.3679   -1.7696   -3.4751 N   0  0  0  0  0  0  0  0  0  0  0  0
   -0.7901    3.0663   -3.8978 N   0  0  0  0  0  0  0  0  0  0  0  0
   -2.9956    1.6380   -3.2800 N   0  0  0  0  0  0  0  0  0  0  0  0
   -3.9607   -2.5402   -5.6036 O   0  0  0  0  0  0  0  0  0  0  0  0
   -4.7977   -0.9594   -1.3720 O   0  0  0  0  0  0  0  0  0  0  0  0
   -1.9736    4.3818   -5.3413 O   0  0  0  0  0  0  0  0  0  0  0  0
   -4.8384    0.7969   -4.3283 O   0  0  0  0  0  0  0  0  0  0  0  0
   -6.4572   -4.6224   -6.0415 I   0  0  0  0  0  0  0  0  0  0  0  0
    1.2601    1.4127   -0.1288 H   0  0  0  0  0  0  0  0  0  0  0  0
   -0.8034    0.1757    0.5284 H   0  0  0  0  0  0  0  0  0  0  0  0
    1.2717    2.8041   -2.1866 H   0  0  0  0  0  0  0  0  0  0  0  0
   -2.8343    0.2970   -0.9123 H   0  0  0  0  0  0  0  0  0  0  0  0
   -7.4988   -3.8953   -3.1567 H   0  0  0  0  0  0  0  0  0  0  0  0
   -3.5745    3.6619   -3.0362 H   0  0  0  0  0  0  0  0  0  0  0  0
   -4.0059    2.9189   -4.5859 H   0  0  0  0  0  0  0  0  0  0  0  0
   -6.4330   -2.6739   -0.1570 H   0  0  0  0  0  0  0  0  0  0  0  0
   -7.4361   -1.4132   -0.8990 H   0  0  0  0  0  0  0  0  0  0  0  0
   -7.8713   -3.1317   -1.1086 H   0  0  0  0  0  0  0  0  0  0  0  0
   -2.5866   -0.9660   -2.7248 H   0  0  0  0  0  0  0  0  0  0  0  0
   -2.7192   -1.0673   -4.4895 H   0  0  0  0  0  0  0  0  0  0  0  0
    0.0592    3.5150   -4.2257 H   0  0  0  0  0  0  0  0  0  0  0  0
  1  2  1  0  0  0  0
  1  3  2  0  0  0  0
  1 25  1  0  0  0  0
  2  4  2  0  0  0  0
  2 26  1  0  0  0  0
  3  6  1  0  0  0  0
  3 27  1  0  0  0  0
  4  7  1  0  0  0  0
  4 28  1  0  0  0  0
  5  8  2  0  0  0  0
  5 16  1  0  0  0  0
  5 29  1  0  0  0  0
  6  7  2  0  0  0  0
  6 18  1  0  0  0  0
  7 19  1  0  0  0  0
  8  9  1  0  0  0  0
  8 24  1  0  0  0  0
  9 17  1  0  0  0  0
  9 20  2  0  0  0  0
 10 16  1  0  0  0  0
 10 17  1  0  0  0  0
 10 21  2  0  0  0  0
 11 13  1  0  0  0  0
 11 18  1  0  0  0  0
 11 22  2  0  0  0  0
 12 15  1  0  0  0  0
 12 19  1  0  0  0  0
 12 23  2  0  0  0  0
 13 19  1  0  0  0  0
 13 30  1  0  0  0  0
 13 31  1  0  0  0  0
 14 16  1  0  0  0  0
 14 32  1  0  0  0  0
 14 33  1  0  0  0  0
 14 34  1  0  0  0  0
 15 17  1  0  0  0  0
 15 35  1  0  0  0  0
 15 36  1  0  0  0  0
 18 37  1  0  0  0  0
M  END
$$$$
