27   
torsion grid (-165,)
C        1.5157536341    0.4455871617   -2.0968085956
C       -0.4461626892   -1.9012926646   -3.6529363445
C       -0.1893460130   -2.8950983673   -2.5339042019
C        0.9318103975    1.9029412456    1.3981941840
C       -1.3630472783    1.3493748895    0.9919501063
C        0.7935295800   -1.7850525886   -2.7964218248
C       -0.4658473117    2.0027974870    2.0604950483
C        1.5969838832    1.4197074379   -0.9190925330
N        0.7089526040    1.0898534763    0.1875541974
N        0.8969177293   -0.7327597203   -1.8266967955
O        2.0240319903    0.7327758557   -3.1791457915
O       -0.6383173680    1.5046457685   -0.2282259017
O       -0.8287610200    3.3443368296    2.3728726627
H       -0.3227861764   -2.2278078072   -4.6809746981
H       -1.2192415445   -1.1563855872   -3.4933823118
H       -0.8125511942   -2.8183907517   -1.6463962615
H        0.1077096665   -3.9080186158   -2.7878360463
H        1.2816339307    2.9173788749    1.1551888766
H        1.6781768625    1.4128418825    2.0277274693
H       -1.5219895945    0.2832712382    1.2033058406
H       -2.3214876509    1.8592683075    0.8804670227
H        1.7393004520   -2.0418027410   -3.2649521091
H       -0.5162850018    1.4693001386    3.0108687695
H        2.6218220771    1.3796817092   -0.5355322787
H        1.4201571836    2.4333617865   -1.3024919348
H        0.5562535889   -0.8651340809   -0.8812045057
H       -0.8283411181    3.8542384221    1.5454325524
27   
torsion grid (-150,)
C        1.4349383523    0.4509451809   -2.0894093406
C       -0.3255881226   -1.8240749864   -3.7298088551
C       -0.3528606570   -2.7968686199   -2.5670511667
C        0.8778211794    1.9564503801    1.3904246186
C       -1.3922744150    1.2599602703    1.0734237809
C        0.7947535497   -1.8296160474   -2.7182942892
C       -0.4994878894    1.9834523922    2.1002014810
C        1.4965778571    1.4554547459   -0.9358252325
N        0.6650086045    1.1024005292    0.2067479292
N        0.8901146379   -0.7537838960   -1.7741794007
O        1.8901127929    0.7431626982   -3.1931585042
O       -0.7168135204    1.4296459937   -0.1729016647
O       -0.9312908724    3.3056860410    2.4076833125
H       -0.1077584239   -2.2030069869   -4.7233305831
H       -1.0055437651   -0.9793927692   -3.6957068901
H       -1.0686017774   -2.6046774264   -1.7721313081
H       -0.1584292487   -3.8480464950   -2.7570263076
H        1.1536138011    2.9847223979    1.1124963475
H        1.6752856286    1.5294920546    2.0030623930
H       -1.4848408750    0.1913328495    1.3097123936
H       -2.3807358156    1.7139225127    0.9842504766
H        1.7512906294   -2.2269077664   -3.0493828074
H       -0.4848311445    1.4627838087    3.0588710314
H        2.5337935430    1.4833128555   -0.5859659107
H        1.2495404726    2.4479923406   -1.3355039017
H        0.5880956353   -0.8820845379   -0.8149924459
H       -0.9885419986    3.8026699351    1.5744106492
27   
torsion grid (-135,)
C        1.4166181180    0.4467793845   -2.1396284858
C       -0.1859703372   -1.7618298342   -3.8135405680
C       -0.4559897411   -2.6844480459   -2.6436377044
C        0.9166282965    1.9905561635    1.3338335698
C       -1.3283751118    1.1860628136    1.1091435621
C        0.8196535469   -1.8745923762   -2.6956662503
C       -0.4383620629    1.9776831016    2.0861766045
C        1.4775451359    1.4719864967   -1.0034341649
N        0.7031054345    1.1042092862    0.1740392973
N        0.9548821332   -0.7806443236   -1.7774129011
O        1.8008173543    0.7489361599   -3.2669471438
O       -0.7047643121    1.3589087277   -0.1635727840
O       -0.9200093834    3.2882706948    2.3684152641
H        0.0811497298   -2.1965103103   -4.7713642156
H       -0.7466206210   -0.8353856083   -3.8692678869
H       -1.2111247774   -2.3754203854   -1.9261663504
H       -0.3806447052   -3.7575349594   -2.7923726429
H        1.1419194073    3.0231787221    1.0281000448
H        1.7491173291    1.6084668918    1.9292786931
H       -1.3586399469    0.1202048005    1.3726025391
H       -2.3408520945    1.5882742847    1.0445554970
H        1.7432144611   -2.4053530291   -2.9174534862
H       -0.3712065024    1.4873815266    3.0585169265
H        2.5244177257    1.5488349853   -0.6916442898
H        1.1745914581    2.4462230464   -1.4095923728
H        0.6828472277   -0.8932257642   -0.8070620319
H       -1.0270066411    3.7555734558    1.5229329710
27   
torsion grid (-120,)
C        1.3847890753    0.4331993717   -2.1421268844
C       -0.0780471845   -1.7560742493   -3.8169063354
C       -0.5546816381   -2.5791258403   -2.6416432070
C        0.9075247715    2.0174108714    1.3175438671
C       -1.3072468126    1.1189343715    1.1539135815
C        0.8151951543   -1.9294001150   -2.6159515310
C       -0.4302711591    1.9631901217    2.0982624536
C        1.4411280247    1.4771899444   -1.0216254401
N        0.7072930463    1.1013625162    0.1788948650
N        1.0183637574   -0.8138496021   -1.7354343481
O        1.6956731965    0.7447024832   -3.2890002540
O       -0.7162843721    1.2920860524   -0.1343842625
O       -0.9590353085    3.2579252036    2.3688092124
H        0.2123426418   -2.2665065622   -4.7296089069
H       -0.5137757531   -0.7748349950   -3.9633882617
H       -1.3178738925   -2.1420933448   -2.0040067721
H       -0.6001312568   -3.6599777132   -2.7385045770
H        1.0837057284    3.0523619287    0.9883223212
H        1.7670076522    1.6811458430    1.9021715608
H       -1.2903045395    0.0578888177    1.4370304010
H       -2.3358190996    1.4801238828    1.1026979173
H        1.6771777841   -2.5829292213   -2.7348180433
H       -0.3232710664    1.4930116278    3.0769471113
H        2.4918853772    1.5928190990   -0.7357043431
H        1.0957685335    2.4339876714   -1.4350223254
H        0.7576376435   -0.8987862863   -0.7586518423
H       -1.0999255777    3.7067508316    1.5183072434
27   
torsion grid (-105,)
C        1.3304186391    0.4529742781   -2.1715515145
C        0.0193478674   -1.7652680550   -3.8529112208
C       -0.6521715668   -2.4376422349   -2.6791830717
C        0.8955676795    2.0457727819    1.2915509419
C       -1.2833413636    1.0545020941    1.1950183651
C        0.7823507822   -1.9481461622   -2.5663092600
C       -0.4198828967    1.9479568439    2.1055737933
C        1.3875109122    1.5052995797   -1.0574325835
N        0.7033725353    1.1116194227    0.1662104963
N        1.0557973796   -0.8084093421   -1.7341437633
O        1.5691653561    0.7794495673   -3.3314913928
O       -0.7348636738    1.2388519816   -0.1105539869
O       -0.9957508809    3.2237562953    2.3697562272
H        0.3258371630   -2.3751112178   -4.6970148750
H       -0.2804320056   -0.7568117851   -4.1084782001
H       -1.4032785917   -1.8663307724   -2.1413643685
H       -0.8217817285   -3.5103124558   -2.7088329224
H        1.0237518624    3.0834301835    0.9492088230
H        1.7813137665    1.7481717843    1.8576518392
H       -1.2114796705   -0.0013988594    1.4883765082
H       -2.3279060471    1.3693516778    1.1677626228
H        1.5633073662   -2.7057904235   -2.5626724966
H       -0.2701224677    1.4978080124    3.0880500177
H        2.4418340735    1.6580994600   -0.8037940227
H        0.9968891040    2.4465513029   -1.4659870173
H        0.8193827406   -0.8709724668   -0.7486493506
H       -1.1765275601    3.6522379715    1.5162946802
27   
torsion grid (-90,)
C        1.2357551079    0.4834816625   -2.1900107364
C        0.1515452627   -1.8344038745   -3.8989728386
C       -0.7282359461   -2.3133179771   -2.7683038977
C        0.8801232320    2.0707026680    1.2865920538
C       -1.2698747481    1.0137792867    1.2666654696
C        0.7288396673   -1.9568059844   -2.5123381219
C       -0.4047833638    1.9384142857    2.1436374667
C        1.3056099592    1.5391337732   -1.0781786891
N        0.6772059390    1.1288410868    0.1693906099
N        1.0426801256   -0.7867506770   -1.7343403920
O        1.4054917315    0.8250587014   -3.3583528340
O       -0.7728953190    1.2111423041   -0.0575965842
O       -1.0104211712    3.1980506250    2.4186822955
H        0.4901392417   -2.5602300188   -4.6321747663
H       -0.0032107016   -0.8354444750   -4.2846868338
H       -1.4680240419   -1.6171923336   -2.3839696186
H       -1.0127437473   -3.3611017806   -2.7238623236
H        0.9682689392    3.1106456040    0.9388684034
H        1.7918848311    1.7988179024    1.8235737773
H       -1.1534802311   -0.0381428754    1.5598731182
H       -2.3244121145    1.2945366524    1.2748103541
H        1.4127962826   -2.7848868938   -2.3400363752
H       -0.2097467250    1.4997559235    3.1233590971
H        2.3639088425    1.7208186235   -0.8628729347
H        0.8744776736    2.4680293968   -1.4737091273
H        0.8349867652   -0.8331257420   -0.7406561315
H       -1.2332792349    3.6139536128    1.5689431415
27   
torsion grid (-75,)
C        0.9845703815    0.5843714941   -2.1322202262
C        0.3089933993   -1.8654426471   -3.9218486923
C       -0.8199373366   -2.1672717746   -2.9594691658
C        0.7592639495    2.1108772377    1.3826575461
C       -1.3616010605    0.9989067205    1.4572857731
C        0.5815826204   -1.8886318974   -2.4400576314
C       -0.4754090118    1.9326444138    2.3029197358
C        1.0706557937    1.6295308241   -1.0110747464
N        0.5204129948    1.1829361560    0.2606673468
N        0.8609418195   -0.6946460578   -1.6824055286
O        1.0845927287    0.9492700771   -3.3027988118
O       -0.9411192445    1.2306991167    0.1123393251
O       -1.0975605740    3.1719976114    2.6287999158
H        0.7218197834   -2.6856364957   -4.5021473883
H        0.3137545625   -0.9010447958   -4.4115294249
H       -1.5557403148   -1.3846026588   -2.8003717828
H       -1.2011784138   -3.1822486042   -2.8873709668
H        0.8044796209    3.1583047135    1.0496696386
H        1.7041425468    1.8523926877    1.8663660440
H       -1.2023920510   -0.0540308032    1.7257689342
H       -2.4211814216    1.2508432282    1.5258992320
H        1.1388691999   -2.7440594515   -2.0661256224
H       -0.2184629129    1.4851669265    3.2642074967
H        2.1312171657    1.8475594127   -0.8469212533
H        0.5865342065    2.5460310455   -1.3724321863
H        0.6827527375   -0.7512922500   -0.6834304463
H       -1.3758052831    3.5936050055    1.7984148945
27   
torsion grid (-60,)
C        0.8289597884    0.5408697582   -2.1636293223
C        0.6536029788   -2.0526677693   -3.9233108831
C       -0.7241730806   -2.1541458334   -3.2910937338
C        0.8483128370    2.1339652674    1.3265589825
C       -1.2636143352    1.0326641716    1.5832404064
C        0.5034547776   -1.9433337601   -2.4274869781
C       -0.3130219647    1.9781729051    2.3413094112
C        0.9738906366    1.6118756429   -1.0749976204
N        0.5219101768    1.1871487124    0.2426066835
N        0.7176649958   -0.7244917992   -1.6857665992
O        0.8653416455    0.8742488610   -3.3488797501
O       -0.9466442350    1.2374340039    0.2062126890
O       -0.9046763475    3.2262115609    2.6901771376
H        1.1165417136   -2.9615858172   -4.2977530702
H        0.8778299500   -1.1471046070   -4.4702802605
H       -1.3791302436   -1.2979421685   -3.4185264477
H       -1.2225919167   -3.1186119693   -3.2490903494
H        0.8714062272    3.1750455500    0.9722561186
H        1.8264687652    1.8798371275    1.7415673005
H       -1.0873473856   -0.0157397202    1.8590964706
H       -2.3142860305    1.2899189985    1.7275227322
H        0.8389958605   -2.8017353581   -1.8521738412
H        0.0150932842    1.5476370304    3.2885840583
H        2.0398357711    1.8488273789   -0.9923998436
H        0.4511717585    2.5136631871   -1.4191689350
H        0.6001943646   -0.7770577013   -0.6788787276
H       -1.2466135764    3.6322233607    1.8759483213
27   
torsion grid (-45,)
C        0.5591253655    0.5078426710   -2.1203227507
C        0.7178822411   -2.1393304463   -3.8353525709
C       -0.7647085622   -2.0788692536   -3.4981218719
C        0.8682734493    2.0909369053    1.3575133803
C       -1.1977899477    0.9653787541    1.8086175096
C        0.2728653373   -1.9647224181   -2.4039277936
C       -0.1873927358    1.9155071351    2.4787514597
C        0.7707638929    1.5817806469   -1.0477842810
N        0.4499084382    1.1454276038    0.3043937087
N        0.4803126473   -0.7567361545   -1.6413858538
O        0.5151824327    0.8309065992   -3.3092631107
O       -1.0156166172    1.1799821858    0.4089128210
O       -0.7543093401    3.1545671517    2.8942117558
H        1.1564589759   -3.0971057638   -4.1021089205
H        1.1283827490   -1.2739838719   -4.3393124432
H       -1.2809460343   -1.1691278704   -3.7836202124
H       -1.3573050517   -2.9885496478   -3.5399122157
H        0.8442545910    3.1339876922    1.0090135388
H        1.8850344409    1.8472932485    1.6743941669
H       -0.9870195954   -0.0827668256    2.0603397891
H       -2.2321139091    1.2121390387    2.0540046815
H        0.3876396151   -2.8337636455   -1.7633838493
H        0.2353617746    1.4813250354    3.3860094222
H        1.8330379624    1.8472700194   -1.0614623788
H        0.1961812629    2.4701479521   -1.3405047764
H        0.4619857097   -0.8286175729   -0.6299271823
H       -1.1770807791    3.5637121145    2.1205298840
27   
torsion grid (-30,)
C        0.5034109624    0.4972347547   -2.1478608159
C        0.8590794913   -2.2291357056   -3.7849489016
C       -0.6419260417   -2.0107073321   -3.6811912385
C        0.8833406889    2.0714783100    1.3265706088
C       -1.1417742639    0.8955388590    1.8315181799
C        0.2193574792   -1.9720456219   -2.4399936982
C       -0.1337680719    1.8647365925    2.4776884013
C        0.7297620966    1.5693027631   -1.0768835444
N        0.4571705109    1.1204933471    0.2816884517
N        0.4656378784   -0.7715012253   -1.6758900152
O        0.4233317103    0.8233920810   -3.3342591449
O       -1.0049841941    1.1207816855    0.4283099647
O       -0.7161575109    3.0876397469    2.9187330180
H        1.2385882658   -3.2283082429   -3.9806162719
H        1.4270281751   -1.4165114948   -4.2226771225
H       -1.0158796256   -1.0673287436   -4.0588105350
H       -1.3070737222   -2.8625244271   -3.7943356459
H        0.8227370479    3.1150611364    0.9840406352
H        1.9148974328    1.8522300335    1.6118461030
H       -0.9005566904   -0.1488225395    2.0713880676
H       -2.1737981938    1.1178973751    2.1079538451
H        0.1412513424   -2.8277244471   -1.7768507768
H        0.3260169210    1.4346951893    3.3687615492
H        1.7865685505    1.8529109106   -1.1200293056
H        0.1320494950    2.4492156336   -1.3483036867
H        0.4928177635   -0.8513711883   -0.6653270485
H       -1.1707226841    3.4922640396    2.1608662707
27   
torsion grid (-15,)
C        0.3394656363    0.5723298815   -2.1782504279
C        0.9279530710   -2.3300132240   -3.6194774324
C       -0.5286322156   -1.9532223861   -3.8260082434
C        0.8699816228    2.1365110791    1.2837073678
C       -1.0953972266    0.9106666944    1.8933880074
C        0.0713519375   -1.9143706085   -2.4414375281
C       -0.0761829841    1.9004146088    2.4884427659
C        0.5961634011    1.6420337752   -1.1105181239
N        0.4077535442    1.1812378384    0.2581679257
N        0.3187108503   -0.6972162133   -1.7059919787
O        0.2260445503    0.9086271539   -3.3587427694
O       -1.0435530185    1.1475414276    0.4863464974
O       -0.6620321798    3.1070950698    2.9680400516
H        1.2252729536   -3.3724644988   -3.6930606882
H        1.6633697140   -1.6104783161   -3.9645482238
H       -0.7220576286   -1.0070569770   -4.3130590191
H       -1.2471904943   -2.7442498588   -4.0228269065
H        0.7666099100    3.1801190666    0.9517260335
H        1.9205987441    1.9396569380    1.5096303590
H       -0.8154662090   -0.1288209872    2.1115270151
H       -2.1151918821    1.1057195083    2.2293886224
H       -0.2345731282   -2.7078188540   -1.7663701250
H        0.4425047861    1.4776042177    3.3501658706
H        1.6420657687    1.9510572266   -1.2083685662
H       -0.0349309771    2.5093696517   -1.3445594759
H        0.4328769510   -0.7748695307   -0.7010943316
H       -1.1685058687    3.5032069031    2.2391439664
27   
torsion grid (0,)
C        0.1457695256    0.6341968031   -2.2455046475
C        1.0346690071   -2.4290403881   -3.4124765460
C       -0.2680041573   -1.9226459119   -4.0019462489
C        0.8633416794    2.1476881119    1.2084338740
C       -1.0555582558    0.9007286742    1.9159845780
C       -0.0518910500   -1.8695412605   -2.5115711667
C       -0.0048736006    1.8844622712    2.4650235631
C        0.4475905600    1.6887469464   -1.1726963632
N        0.3443666728    1.2062557333    0.1975120937
N        0.1306607134   -0.6410431877   -1.7815362160
O       -0.0156873944    0.9960286292   -3.4117086856
O       -1.0899513937    1.1607510520    0.5125868469
O       -0.5635074189    3.0791141124    3.0035999631
H        1.2266759565   -3.4980195474   -3.3816735874
H        1.9118811922   -1.8057480016   -3.5581559976
H       -0.2422843566   -0.9853273005   -4.5406480515
H       -0.9881833237   -2.6527464548   -4.3602989977
H        0.7330993101    3.1959464205    0.9013755150
H        1.9271361028    1.9548222321    1.3657946162
H       -0.7602288585   -0.1411585907    2.0995037247
H       -2.0536815367    1.0864806033    2.3162468779
H       -0.6081942814   -2.5945856689   -1.9231968520
H        0.5683082678    1.4477403863    3.2842430044
H        1.4819019021    2.0135659771   -1.3263548363
H       -0.2064972315    2.5511468788   -1.3559443946
H        0.3345531528   -0.7230273700   -0.7903313160
H       -1.1155767575    3.4870424288    2.3154840564
27   
torsion grid (15,)
C       -0.0160127636    0.6548707698   -2.2634879192
C        1.0440405594   -2.5167386471   -3.2156963724
C       -0.0484565797   -1.8888969687   -4.0569591323
C        0.8663952208    2.1520093786    1.1609710119
C       -0.9951964346    0.8730150355    1.9586301372
C       -0.1508633301   -1.8472569493   -2.5560848589
C        0.0694183887    1.8674876305    2.4594990877
C        0.3341938976    1.7024268334   -1.1980342014
N        0.3090347680    1.2092942637    0.1719632494
N        0.0071569411   -0.6272087982   -1.8107173871
O       -0.2510524023    1.0270277285   -3.4124517251
O       -1.1061149534    1.1420823908    0.5608728369
O       -0.4762733538    3.0502146861    3.0364078553
H        1.1179295880   -3.5993224935   -3.1608331956
H        1.9902414973   -1.9867121979   -3.1577163550
H        0.1678835207   -0.9579338118   -4.5634978444
H       -0.7431621482   -2.5452096840   -4.5726008471
H        0.7042104666    3.2000761578    0.8686050114
H        1.9398003709    1.9747168686    1.2608915227
H       -0.6765684863   -0.1658569541    2.1185222795
H       -1.9735036595    1.0421299955    2.4117200683
H       -0.8855860567   -2.5116854341   -2.1064631659
H        0.6909188506    1.4329392381    3.2438896681
H        1.3566055938    2.0360303695   -1.4041532314
H       -0.3347011286    2.5613959422   -1.3390073277
H        0.2662543170   -0.7152672188   -0.8325886065
H       -1.0699008698    3.4550144926    2.3818507745
27   
torsion grid (30,)
C        1.5871029632    0.1153069595   -1.6575431231
C       -0.0170043864   -2.8409246359   -2.7773474893
C        0.9738415963   -2.1453938974   -3.6878446267
C        0.7293095901    1.4551989937    1.8363772933
C       -1.2193922312    2.3579330274    0.7752876033
C       -0.0285827322   -1.3288001968   -2.9193156694
C       -0.5275535706    2.3057445790    2.1509824956
C        1.7594385545    0.8138842182   -0.3026199457
N        0.5254729925    0.9954575176    0.4493577524
N        0.3849418507   -0.5023759024   -1.8194139838
O        2.5159672885    0.1273477175   -2.4627787971
O       -0.1665478113    2.1375761119   -0.1635648004
O       -0.2021555070    3.5879768838    2.6795070102
H       -0.8398204208   -3.3985482317   -3.2158740921
H        0.3628034345   -3.2406468607   -1.8416324838
H        2.0070401502   -2.0846061650   -3.3717661742
H        0.8289354018   -2.2145118859   -4.7614168344
H        1.6210936256    2.0922872620    1.9326648091
H        0.8426305381    0.5869819150    2.4898057415
H       -1.9792972066    1.5705197718    0.6814003988
H       -1.6589292567    3.3341388123    0.5635584822
H       -0.8488188134   -0.9039253716   -3.4950636358
H       -1.1653616176    1.8439960565    2.9061971547
H        2.4172903539    0.1796627671    0.3007262291
H        2.2778438092    1.7655633133   -0.4779126420
H       -0.2474987832   -0.4107377091   -1.0303784523
H        0.3405258490    4.0532980065    2.0209810420
27   
torsion grid (45,)
C        1.5914557355    0.1714095114   -1.7140437559
C       -0.1362626800   -2.8009644080   -2.8145802102
C        1.0195043887   -2.2325895405   -3.6113585417
C        0.7810400280    1.4860337536    1.7987281557
C       -1.2306291585    2.2993487136    0.7835923689
C        0.0279266292   -1.3009804920   -2.9703099219
C       -0.5017505325    2.2856929081    2.1410439607
C        1.7794635421    0.8697612435   -0.3621025690
N        0.5593888969    1.0058823039    0.4215937942
N        0.4241844107   -0.5200168078   -1.8335169219
O        2.4802212572    0.2338458438   -2.5600817598
O       -0.1946384910    2.1139477475   -0.1812543743
O       -0.2169086895    3.5839167692    2.6536412689
H       -0.9580687341   -3.2769782885   -3.3417743315
H        0.0877897430   -3.2209885895   -1.8383505381
H        2.0101225832   -2.2703006123   -3.1752842690
H        0.9968072801   -2.3100411236   -4.6935899941
H        1.6473702123    2.1610141810    1.8655759967
H        0.9486517811    0.6292618689    2.4555854525
H       -1.9604478236    1.4814587885    0.7151384331
H       -1.7144835945    3.2554936338    0.5769735388
H       -0.6706793544   -0.7994737458   -3.6380534027
H       -1.1000147715    1.8029117037    2.9152309425
H        2.4734224566    0.2563320938    0.2220999714
H        2.2602341084    1.8392456436   -0.5472013472
H       -0.2119348940   -0.4409933243   -1.0468605132
H        0.2894830143    4.0667700000    1.9790367509
27   
torsion grid (60,)
C        1.6043722636    0.2040427484   -1.7201075556
C       -0.2590939172   -2.7502626221   -2.8441581567
C        1.0242145336   -2.3309808586   -3.5307884986
C        0.8139622739    1.5016824701    1.8011090367
C       -1.2504943314    2.2180769178    0.8191162598
C        0.0924614611   -1.2843452179   -2.9810952408
C       -0.4956739410    2.2478778710    2.1620652878
C        1.7962801753    0.9112453259   -0.3743002848
N        0.5869773586    0.9998499916    0.4327449628
N        0.4815652177   -0.5633681414   -1.8032885522
O        2.4544249027    0.3148023765   -2.5997464153
O       -0.2263015171    2.0687902531   -0.1645279470
O       -0.2580409047    3.5615824264    2.6589526497
H       -1.0775239675   -3.1314387818   -3.4477781223
H       -0.1775556404   -3.1887305000   -1.8537753065
H        1.9577246724   -2.4792395795   -3.0005261869
H        1.0931010523   -2.4186411958   -4.6101350688
H        1.6512181821    2.2142177922    1.8455314276
H        1.0312960763    0.6589119911    2.4614957027
H       -1.9455187877    1.3689988340    0.7716862227
H       -1.7790637962    3.1506745261    0.6144302662
H       -0.4731182976   -0.7030784564   -3.7075316821
H       -1.0574128374    1.7462548683    2.9514869314
H        2.5254891853    0.3273167553    0.1970720330
H        2.2336954329    1.8988607484   -0.5709521585
H       -0.1672417378   -0.4858823826   -1.0272795297
H        0.2150945054    4.0598280697    1.9715265830
27   
torsion grid (75,)
C        1.6445664796    0.2854221813   -1.7669134469
C       -0.3575670527   -2.6443461476   -2.8884948033
C        1.0198906056   -2.4187426282   -3.4775835798
C        0.8590994350    1.5666182507    1.7592892434
C       -1.2589834201    2.1588246174    0.8089872244
C        0.1941884951   -1.2439551209   -3.0207322124
C       -0.4824069092    2.2448649299    2.1370216830
C        1.8316119414    1.0056926775   -0.4282842991
N        0.6346738626    1.0372840346    0.4010231495
N        0.5765604364   -0.5595878175   -1.8183786732
O        2.4528938773    0.4482403207   -2.6771310790
O       -0.2463994221    2.0537655810   -0.1923146882
O       -0.3074877880    3.5750523303    2.6156449091
H       -1.1694323416   -2.9319072587   -3.5497569160
H       -0.4126236188   -3.0660371365   -1.8888213272
H        1.8796115203   -2.6746378278   -2.8679869574
H        1.1596068887   -2.5471691745   -4.5460633735
H        1.6570001721    2.3240022136    1.7802853385
H        1.1340164227    0.7446056694    2.4243580386
H       -1.9075945145    1.2728818654    0.7836944337
H       -1.8411124392    3.0590143043    0.6045505950
H       -0.2260004094   -0.6080866699   -3.7976721070
H       -1.0015727082    1.7226289197    2.9420655082
H        2.5987548407    0.4596213714    0.1308140276
H        2.2165312577    2.0126894858   -0.6364218017
H       -0.0806402462   -0.4944316120   -1.0484778157
H        0.1252521603    4.0903600501    1.9143236431
27   
torsion grid (90,)
C        1.6803229539    0.3387433258   -1.7891697311
C       -0.4581401650   -2.5490569874   -2.8995023893
C        0.9733897248   -2.5433262590   -3.3974975115
C        0.8860867272    1.5968227475    1.7412565795
C       -1.2688457882    2.0799910331    0.8119001031
C        0.2941135607   -1.2477081564   -3.0252718159
C       -0.4814472873    2.2146296807    2.1294515214
C        1.8583946070    1.0679388374   -0.4547781878
N        0.6716966892    1.0474446854    0.3893480480
N        0.6769899609   -0.5836513593   -1.8102757507
O        2.4408206067    0.5598548962   -2.7279785337
O       -0.2643168570    2.0152720743   -0.2008003192
O       -0.3637783459    3.5559872332    2.5940945809
H       -1.2586157908   -2.7425598507   -3.6070615309
H       -0.6374834210   -2.9298020605   -1.8976168299
H        1.7428301279   -2.9007723147   -2.7211878826
H        1.1607426748   -2.7282798767   -4.4505252839
H        1.6480111800    2.3905908545    1.7480877685
H        1.2062507956    0.7933745340    2.4087661940
H       -1.8743840890    1.1637785301    0.8014991283
H       -1.8958823316    2.9495028664    0.6075357767
H        0.0260822284   -0.5812784026   -3.8418195027
H       -0.9657672126    1.6760612771    2.9453745942
H        2.6549192106    0.5553827300    0.0950854958
H        2.1965114626    2.0901844641   -0.6694604568
H        0.0207404431   -0.5398499523   -1.0378669363
H        0.0366398677    4.0842753926    1.8832874217
27   
torsion grid (105,)
C        1.7205772623    0.3704252324   -1.8357866637
C       -0.5743805443   -2.4355005603   -2.9202315389
C        0.8755953073   -2.7049584894   -3.2744255167
C        0.9136368999    1.6222870748    1.6933004604
C       -1.2784412728    1.9796926446    0.7947720559
C        0.3971522601   -1.2902140816   -3.0385276862
C       -0.4773618891    2.1751289112    2.0960697255
C        1.8783472228    1.1253307478   -0.5136407185
N        0.7079496868    1.0485127610    0.3498398309
N        0.7703956030   -0.6054153438   -1.8307054251
O        2.4509032208    0.6233073407   -2.7912084981
O       -0.2889153984    1.9575032051   -0.2342603656
O       -0.4211098748    3.5282749334    2.5375465887
H       -1.3317498294   -2.5420057698   -3.6908297861
H       -0.9052153789   -2.7159716718   -1.9233986318
H        1.5063403151   -3.1411361174   -2.5063107654
H        1.1187526642   -2.9941473394   -4.2923250308
H        1.6348328521    2.4530442980    1.6813605535
H        1.2831724830    0.8426936623    2.3635794069
H       -1.8322020969    1.0312558927    0.8062206330
H       -1.9561582054    2.8103967189    0.5908183839
H        0.3248079092   -0.6415821729   -3.9068687863
H       -0.9195125264    1.6258645981    2.9286310016
H        2.7114203669    0.6660627263    0.0290828267
H        2.1541443794    2.1622325605   -0.7463118693
H        0.1242900283   -0.5852087047   -1.0489512340
H       -0.0616127731    4.0646591066    1.8110784878
27   
torsion grid (120,)
C        1.7575730051    0.4074308793   -1.8931166544
C       -0.6549831841   -2.3063423748   -2.9678001593
C        0.7558465720   -2.8575617346   -3.0759346192
C        0.9383377577    1.6596682611    1.6332441106
C       -1.2897181174    1.8708409008    0.7789313248
C        0.5176018966   -1.3638752234   -3.0350955607
C       -0.4741915131    2.1357553612    2.0584964774
C        1.8859019544    1.1979278421   -0.5888401817
N        0.7403458536    1.0589735599    0.3000061928
N        0.8548976679   -0.6090678542   -1.8592781336
O        2.4701547970    0.6770696063   -2.8586474682
O       -0.3235357925    1.8968126268   -0.2717903130
O       -0.4892627378    3.4976930224    2.4757564589
H       -1.3119604055   -2.3680536241   -3.8300873469
H       -1.1622154886   -2.4159042811   -2.0121565102
H        1.1849667611   -3.3113049026   -2.1876068207
H        1.0735475029   -3.2980030610   -4.0164699820
H        1.6095099758    2.5305697580    1.5980840438
H        1.3657875043    0.9106634817    2.3039721404
H       -1.7813185364    0.8892760006    0.8155535982
H       -2.0234711872    2.6536377263    0.5795517487
H        0.6822801055   -0.8056221290   -3.9504780056
H       -0.8646344882    1.5762667507    2.9098982740
H        2.7592372259    0.8084249792   -0.0550740860
H        2.0850765923    2.2464398652   -0.8462412055
H        0.2369411093   -0.6248906552   -1.0551347447
H       -0.1793396005    4.0411458964    1.7318883830
27   
torsion grid (135,)
C        1.7725092320    0.5417191106   -1.9016172734
C       -0.6704027357   -2.0601873818   -3.1038080624
C        0.6193065387   -2.8373990650   -2.8866975331
C        0.9834560573    1.6811994424    1.6705381739
C       -1.2870432090    1.7302136152    0.9093915149
C        0.6445177852   -1.3310413900   -3.0110577440
C       -0.4426362348    2.0428408962    2.1587234887
C        1.8740556489    1.3328100842   -0.5953640456
N        0.7788985999    1.0889235770    0.3340712001
N        0.9178669537   -0.5124480436   -1.8637692091
O        2.4659643983    0.8519562472   -2.8702908972
O       -0.3705508117    1.8485892255   -0.1787035682
O       -0.5443727045    3.3954082137    2.5940562358
H       -1.1604033177   -2.1145897918   -4.0714562886
H       -1.3534602288   -1.9778500697   -2.2618535892
H        0.7890926355   -3.2586853137   -1.8996997777
H        1.0181329692   -3.4270709079   -3.7070624550
H        1.5859036594    2.6004690840    1.6268691314
H        1.4916474911    0.9555213101    2.3098538857
H       -1.6962142332    0.7115611632    0.9496168026
H       -2.0890613617    2.4535596566    0.7530226907
H        1.0664818889   -0.9014990925   -3.9120073913
H       -0.7540927714    1.4463767696    3.0175513981
H        2.7982319676    1.0203401216   -0.0980816401
H        1.9699364719    2.3965857985   -0.8492956507
H        0.3532935658   -0.6005366912   -1.0255758955
H       -0.3101949744    3.9683838200    1.8446426616
27   
torsion grid (150,)
C        1.7361068759    0.5325475031   -1.9796212716
C       -0.6692809120   -2.0010670968   -3.2550835037
C        0.4250843777   -2.9142814045   -2.7198364420
C        0.9831349807    1.7297037986    1.5819393436
C       -1.3074711702    1.6187795892    0.8917332678
C        0.7127579181   -1.4577115297   -2.9864825282
C       -0.4469259026    2.0254941296    2.1019865408
C        1.8260128372    1.3676239985   -0.7001162154
N        0.7755575951    1.0860552623    0.2695653583
N        0.9354834057   -0.5594767366   -1.8901197404
O        2.3954666721    0.8454966889   -2.9712494687
O       -0.4334995994    1.7580264943   -0.2283914641
O       -0.6159351662    3.3853818707    2.4912438434
H       -0.9856352837   -2.1121542510   -4.2881610433
H       -1.4620052226   -1.7133314230   -2.5695298354
H        0.3498166622   -3.2301792208   -1.6824267442
H        0.8608907034   -3.6549976891   -3.3839537621
H        1.5307429051    2.6795140860    1.4941068247
H        1.5495771761    1.0534416248    2.2264687229
H       -1.6493253884    0.5783001769    0.9773162744
H       -2.1582396299    2.2848653073    0.7387123234
H        1.3386608010   -1.2012476843   -3.8326851220
H       -0.6970743717    1.4446077360    2.9910039321
H        2.7818582898    1.1271742932   -0.2231486918
H        1.8487710946    2.4271750314   -0.9867132891
H        0.4214740892   -0.6698717882   -1.0223829244
H       -0.4394438823    3.9420253017    1.7142060408
27   
torsion grid (165,)
C        1.6475702309    0.4297821803   -2.0807318911
C       -0.6710512864   -2.0602285866   -3.3909568502
C        0.1741507206   -3.0288649642   -2.5757451614
C        0.9540505269    1.7814638122    1.4368491525
C       -1.3497409854    1.5222116978    0.8351334930
C        0.7171602436   -1.6715964519   -2.9375114641
C       -0.4710967469    2.0285828147    1.9941393185
C        1.7387278364    1.3370386252   -0.8513864232
N        0.7359828332    1.0586816368    0.1684767345
N        0.9025427540   -0.6910421960   -1.9069360362
O        2.2613792367    0.7145085751   -3.1090808470
O       -0.5204038474    1.6443200367   -0.3203957886
O       -0.6978424153    3.3944918483    2.3288645695
H       -0.8270962597   -2.2628925983   -4.4465299520
H       -1.5084047493   -1.5831653785   -2.8896293178
H       -0.1181313130   -3.1984201797   -1.5422349425
H        0.5977304582   -3.8991099457   -3.0681709645
H        1.4455779904    2.7528247560    1.2792976038
H        1.5787550684    1.1716990364    2.0937469593
H       -1.6392121042    0.4729457708    0.9833698431
H       -2.2355661540    2.1402521606    0.6793637564
H        1.4945223268   -1.6091366666   -3.6900240599
H       -0.6603418301    1.4773424037    2.9164638880
H        2.7205019652    1.1691182315   -0.3965606683
H        1.6991290604    2.3792513986   -1.1941546502
H        0.4400330238   -0.7913923274   -1.0097742091
H       -0.5728706585    3.9238099596    1.5232936828
27   
torsion grid (180,)
C        1.5851763799    0.4413589757   -2.0998638027
C       -0.5692344589   -1.9812209001   -3.5415793114
C       -0.0132090957   -2.9737041208   -2.5324320115
C        0.9526049435    1.8434390774    1.4092116357
C       -1.3533413275    1.4330200134    0.9077166197
C        0.7649013673   -1.7321191300   -2.8748533873
C       -0.4614067582    2.0151222115    2.0204415956
C        1.6735785975    1.3825169501   -0.8962309983
N        0.7289206365    1.0748786656    0.1694566637
N        0.9012936498   -0.7097091711   -1.8775251493
O        2.1474530839    0.7275205865   -3.1562612593
O       -0.5775313248    1.5742381942   -0.2823487784
O       -0.7574783139    3.3710237850    2.3412778548
H       -0.5711600513   -2.2510523861   -4.5934803831
H       -1.4002654976   -1.3585600498   -3.2243174281
H       -0.4956995366   -3.0176269650   -1.5589240303
H        0.3652989393   -3.9277132838   -2.8865926060
H        1.3738955995    2.8393650861    1.2070581077
H        1.6416288038    1.2923004811    2.0534653410
H       -1.5763357275    0.3729058945    1.0895369660
H       -2.2785279511    1.9962291551    0.7742589670
H        1.6527318225   -1.8346239679   -3.4897711029
H       -0.5794157087    1.4715150504    2.9590203602
H        2.6802379342    1.2798836217   -0.4778192955
H        1.5630729619    2.4124402397   -1.2603264210
H        0.5023377512   -0.8316103158   -0.9534826268
H       -0.6968074606    3.8915599819    1.5227046275
