39
0 1 C16H16N2O4S
C                    -5.237711923786    -1.386850980517     5.801410523096
C                    -5.061728417224    -2.226493957679     6.911916998997
C                    -4.772814302821    -1.761736388755     4.536407336763
C                    -4.415039114718    -3.462477023444     6.784536090855
C                    -5.266283265036    -8.403377355093     0.752004325312
C                    -4.136246424654    -2.994270526174     4.402333829186
C                    -4.285233595973    -7.896440795824     1.667460611117
C                    -3.977035486123    -3.815926960449     5.515624676816
C                    -4.989590381895    -9.729540213424     0.525762636509
C                    -3.439694192948    -8.959590795676     2.005389690573
C                    -3.594404235881    -3.570967310602     3.137559771294
C                    -4.264533956235    -6.515048569283     2.144297194927
C                    -5.676202167868   -10.716260085092    -0.365066646805
C                    -2.350552876504    -9.073652228757     3.031832831655
C                    -3.311520603804   -11.396606841524     1.415477980626
C                    -2.894309295044    -5.850804384324     2.409005732985
N                    -3.872808970256   -10.059275835748     1.297724621025
N                    -2.987980339549    -4.805033442505     3.416270523559
O                    -3.627762799934    -3.058081465958     2.034569474489
O                    -5.271491935154    -5.821169994850     2.229188094110
O                    -1.758710071913    -5.304003058947     5.663074217915
O                    -3.897278415525    -6.519193445037     5.143055710068
S                    -3.092458092881    -5.297987658172     5.062552827692
H                    -5.742770623638    -0.433578505881     5.928814725618
H                    -5.431632802088    -1.915954201630     7.884918517698
H                    -4.899589647022    -1.126382077977     3.665148492521
H                    -4.270222992258    -4.116325421556     7.638976593237
H                    -6.062215601335    -7.824613408685     0.303152288727
H                    -5.018707161972   -11.092575346029    -1.158926497600
H                    -6.060790564149   -11.582191104384     0.187350661681
H                    -6.526622394561   -10.228821568161    -0.846983649343
H                    -2.505876145864    -8.353154500722     3.836069794634
H                    -2.351671525377   -10.063164346311     3.498010521709
H                    -1.350711611388    -8.914930847939     2.607607305427
H                    -2.220868835680   -11.351104734716     1.442449767338
H                    -3.668235939915   -11.903319468873     2.319775972266
H                    -3.603497707029   -11.990091820586     0.549162048415
H                    -2.594562886097    -5.364938370392     1.475236359620
H                    -2.106730613694    -6.551842456536     2.679426564404
