51
0 1 C20H26N4O
C                    -1.564866929743    -2.567052698615    -4.594414334985
C                    -3.928657274716    -2.026187212220    -4.465500495716
C                    -2.638729841760    -1.907435633895    -3.920381096602
C                    -5.006428626110    -1.323268560620    -3.941861251559
C                    -4.725814740925    -0.463460915421    -2.854266132714
C                    -2.471784512620    -1.066163611149    -2.778255313969
C                     0.423272853788     0.283062991401     0.915767727760
C                     1.003831213658     2.352572587164    -1.032538521701
C                     2.984656894995     0.121872258047     3.436843943948
C                     2.708069201700     1.013166730463     4.629630633847
C                     1.108608978718     0.902335818418    -1.492544153358
C                     0.615646687807    -1.511232856194    -0.864657003990
C                     1.540730654446     2.469350572623     0.386216552847
C                    -0.149962439627    -1.829936864085    -2.155171278596
C                    -1.211235977089     0.012877421586    -0.967431325297
C                     2.497826937148     1.539167888307     3.225805505823
C                     0.285734341461    -0.029520452328    -0.584937221912
C                    -6.395187105260    -1.449566904483    -4.519115973978
C                    -5.814289235874     0.384908537910    -2.245880280124
C                     1.084435534013     1.769139144007     2.729198702669
N                    -0.717339720152    -3.099762103665    -5.195678303713
N                    -3.515547898980    -0.352444987148    -2.302580824481
N                    -1.293868115099    -0.904154431154    -2.112430857690
N                     0.919159716638     1.502229921975     1.294275772055
O                     0.033190830753    -0.545863877365     1.745966680331
H                    -4.064827763409    -2.673151422287    -5.328352555617
H                     1.579490736668     3.013827836359    -1.688617528758
H                    -0.037544085910     2.692119102056    -1.063665365537
H                     4.020302787611    -0.103238499681     3.198243633604
H                     2.280091369831    -0.676619496749     3.227669024538
H                     1.824928312913     0.798195553144     5.225225812872
H                     3.551720362851     1.393416185831     5.198199372737
H                     0.772565304746     0.796132825668    -2.529112714067
H                     2.162225284899     0.595682958941    -1.467468387425
H                     0.241866381505    -2.114186297251    -0.035421688412
H                     1.689398128645    -1.689731446786    -0.968658153867
H                     2.631318148705     2.327111543179     0.382576321648
H                     1.350640669892     3.470649625702     0.788890919121
H                     0.460511255190    -1.658652043687    -3.046532247420
H                    -0.489200862255    -2.869389303006    -2.182732494636
H                    -1.835956207231    -0.334927491065    -0.138200243137
H                    -1.556682119367     1.008090963202    -1.253265702418
H                     3.238045702796     2.255117925603     2.874034965614
H                    -7.112859016406    -1.809243071756    -3.772607582632
H                    -6.771475939086    -0.488218963357    -4.887850014648
H                    -6.407214943418    -2.153388866873    -5.355788615955
H                    -6.627000183408    -0.238451722675    -1.855174896918
H                    -5.405283539447     0.982972995386    -1.430687814270
H                    -6.258491355267     1.053322972670    -2.992569290235
H                     0.782725681819     2.807561555363     2.913686182259
H                     0.391706623530     1.115043688931     3.258465921091
