34
0 1 C15H13N5S
C                    -0.073230331176    -2.929798760473   -12.946205172494
C                     2.984611539216     1.357351859322    -3.332598668748
C                     3.038047679321     2.451136705790    -4.213799101746
C                     2.475784515529     0.125496158838    -3.745364163966
C                     2.580641429624     2.330520306975    -5.529610539447
C                     0.142182375732    -3.162593388263   -10.429023891081
C                    -0.478110345107    -3.351107890550   -11.655845078960
C                    -0.665582818090    -3.804224465732    -9.441544046854
C                     2.011888690526    -0.016623572896    -5.060843013790
C                     2.072263280506     1.096776518078    -5.937185515325
C                    -1.762516459465    -4.367497109138   -10.113661055181
C                     1.140395394321    -0.995512881288    -6.833708830094
C                    -0.420133134270    -3.942519764971    -8.003786028166
C                    -2.924576982636    -5.139981513272    -9.577653087489
C                    -2.604163928150    -4.455432311897   -12.478573509845
N                     0.243914741819    -2.588264941733   -14.017128743237
N                     1.481731724126    -1.182714415539    -5.601541513025
N                     0.172742439025    -3.131047012734    -7.193406153871
N                    -1.640279555985    -4.087971244049   -11.448171800429
N                     0.622146560902    -1.941632954411    -7.695428561891
S                     1.428198421793     0.636853940784    -7.509755175005
H                     3.345725068212     1.473278065268    -2.314220844537
H                     3.438299022524     3.401867912707    -3.872756179537
H                     2.430635205875    -0.725893954431    -3.072790062948
H                     2.622395141412     3.176165323187    -6.210169792280
H                     1.102092653503    -2.684240351903   -10.290857838084
H                    -0.776531493231    -4.849861509842    -7.520024435582
H                    -3.877473154066    -4.656938590965    -9.822569614686
H                    -2.956604988803    -6.158171045649    -9.982958459353
H                    -2.863089300144    -5.211572945584    -8.491109565473
H                    -2.791850236352    -5.531649104691   -12.454016665668
H                    -3.548406549322    -3.922481009360   -12.331711990463
H                    -2.199857272436    -4.191907903099   -13.455655847399
H                     0.225756454469    -1.598525129809    -8.568980315111
