
  -OEChem-12102412483D

 39 41  0     0  0  0  0  0  0999 V2000
   -7.2931   -3.9024    4.3257 C   0  0  0  0  0  0  0  0  0  0  0  0
   -6.8507   -4.2000    5.6235 C   0  0  0  0  0  0  0  0  0  0  0  0
   -6.5081   -4.2129    3.2095 C   0  0  0  0  0  0  0  0  0  0  0  0
   -5.6102   -4.8154    5.8378 C   0  0  0  0  0  0  0  0  0  0  0  0
   -4.0605   -8.7305    2.2704 C   0  0  0  0  0  0  0  0  0  0  0  0
   -5.2750   -4.8269    3.4176 C   0  0  0  0  0  0  0  0  0  0  0  0
   -3.4372   -8.2048    1.0835 C   0  0  0  0  0  0  0  0  0  0  0  0
   -4.8528   -5.1129    4.7134 C   0  0  0  0  0  0  0  0  0  0  0  0
   -5.0126   -9.6389    1.8765 C   0  0  0  0  0  0  0  0  0  0  0  0
   -4.0552   -8.8164   -0.0139 C   0  0  0  0  0  0  0  0  0  0  0  0
   -4.3013   -5.2331    2.3618 C   0  0  0  0  0  0  0  0  0  0  0  0
   -2.3756   -7.2115    0.9879 C   0  0  0  0  0  0  0  0  0  0  0  0
   -5.9257  -10.4904    2.7001 C   0  0  0  0  0  0  0  0  0  0  0  0
   -3.8552   -8.6058   -1.4797 C   0  0  0  0  0  0  0  0  0  0  0  0
   -5.9236  -10.4528   -0.3374 C   0  0  0  0  0  0  0  0  0  0  0  0
   -2.0503   -6.3450    2.2232 C   0  0  0  0  0  0  0  0  0  0  0  0
   -5.0012   -9.6803    0.4793 N   0  0  0  0  0  0  0  0  0  0  0  0
   -3.2237   -5.8777    2.9603 N   0  0  0  0  0  0  0  0  0  0  0  0
   -4.4130   -5.0479    1.1621 O   0  0  0  0  0  0  0  0  0  0  0  0
   -1.6763   -7.0314   -0.0078 O   0  0  0  0  0  0  0  0  0  0  0  0
   -2.2015   -4.9800    5.1877 O   0  0  0  0  0  0  0  0  0  0  0  0
   -3.2787   -7.2555    5.1693 O   0  0  0  0  0  0  0  0  0  0  0  0
   -3.2394   -5.8756    4.6812 S   0  0  0  0  0  0  0  0  0  0  0  0
   -8.2584   -3.4235    4.1885 H   0  0  0  0  0  0  0  0  0  0  0  0
   -7.4757   -3.9493    6.4758 H   0  0  0  0  0  0  0  0  0  0  0  0
   -6.8326   -3.9895    2.1977 H   0  0  0  0  0  0  0  0  0  0  0  0
   -5.2589   -5.0477    6.8384 H   0  0  0  0  0  0  0  0  0  0  0  0
   -3.8097   -8.5093    3.2983 H   0  0  0  0  0  0  0  0  0  0  0  0
   -6.9838  -10.3098    2.4733 H   0  0  0  0  0  0  0  0  0  0  0  0
   -5.7360  -11.5625    2.5628 H   0  0  0  0  0  0  0  0  0  0  0  0
   -5.7691  -10.2616    3.7567 H   0  0  0  0  0  0  0  0  0  0  0  0
   -3.4046   -9.4864   -1.9556 H   0  0  0  0  0  0  0  0  0  0  0  0
   -4.8037   -8.3996   -1.9893 H   0  0  0  0  0  0  0  0  0  0  0  0
   -3.1777   -7.7676   -1.6346 H   0  0  0  0  0  0  0  0  0  0  0  0
   -6.8130   -9.8673   -0.5987 H   0  0  0  0  0  0  0  0  0  0  0  0
   -5.4313  -10.7709   -1.2578 H   0  0  0  0  0  0  0  0  0  0  0  0
   -6.2399  -11.3439    0.2064 H   0  0  0  0  0  0  0  0  0  0  0  0
   -1.4529   -5.4991    1.8773 H   0  0  0  0  0  0  0  0  0  0  0  0
   -1.4421   -6.9423    2.9104 H   0  0  0  0  0  0  0  0  0  0  0  0
  1  2  1  0  0  0  0
  1  3  2  0  0  0  0
  1 24  1  0  0  0  0
  2  4  2  0  0  0  0
  2 25  1  0  0  0  0
  3  6  1  0  0  0  0
  3 26  1  0  0  0  0
  4  8  1  0  0  0  0
  4 27  1  0  0  0  0
  5  7  1  0  0  0  0
  5  9  2  0  0  0  0
  5 28  1  0  0  0  0
  6  8  2  0  0  0  0
  6 11  1  0  0  0  0
  7 10  2  0  0  0  0
  7 12  1  0  0  0  0
  8 23  1  0  0  0  0
  9 13  1  0  0  0  0
  9 17  1  0  0  0  0
 10 14  1  0  0  0  0
 10 17  1  0  0  0  0
 11 18  1  0  0  0  0
 11 19  2  0  0  0  0
 12 16  1  0  0  0  0
 12 20  2  0  0  0  0
 13 29  1  0  0  0  0
 13 30  1  0  0  0  0
 13 31  1  0  0  0  0
 14 32  1  0  0  0  0
 14 33  1  0  0  0  0
 14 34  1  0  0  0  0
 15 17  1  0  0  0  0
 15 35  1  0  0  0  0
 15 36  1  0  0  0  0
 15 37  1  0  0  0  0
 16 18  1  0  0  0  0
 16 38  1  0  0  0  0
 16 39  1  0  0  0  0
 18 23  1  0  0  0  0
 21 23  2  0  0  0  0
 22 23  2  0  0  0  0
M  END
$$$$
