19   
torsion grid (-165,)
C        0.5009089270    1.8957167458    0.8113949259
C        1.4248812034    0.9886252199    0.2873350350
C        1.8981735864    2.1466577029    2.7871164356
C        2.8335320169    1.2554762903    2.2470077933
C        0.7535100654    2.4640981334    2.0604994066
C        2.5839104749    0.6732038391    0.9959366958
C        4.8647962909    1.9155523966    3.3512700349
C        5.8734388301    2.2593004681    2.2686332193
O        3.9539467639    0.8880020447    2.9491438628
Br      -0.5067764206    3.7005685172    2.8065822744
Br       3.8539383998   -0.5339160436    0.2385965656
Br       5.1197003074    3.4367985398    0.8651189452
H       -0.3953692159    2.1493506877    0.2559917710
H        1.2486467756    0.5368351176   -0.6833985410
H        2.0676876991    2.5772716788    3.7680134610
H        4.3351392130    2.8119134123    3.6887085400
H        5.4081587230    1.5021818593    4.2076895376
H        6.2237366040    1.3638188082    1.7579440280
H        6.7136261234    2.8125724821    2.6891046898
19   
torsion grid (-150,)
C        0.9267229445    2.4931963054    1.7887136941
C        1.4937958830    1.5594779569    0.9195892825
C        2.6070078518    1.9355294924    3.4552130028
C        3.1861638502    1.0142538486    2.5736077934
C        1.4949716353    2.6687212213    3.0517595866
C        2.6177845624    0.8278508545    1.3060047719
C        5.4767904034    0.9609101666    3.2436362332
C        6.2108315155    1.4119786338    1.9857890373
O        4.2640036172    0.2546857704    2.9630940310
Br       0.7246442590    3.9363742810    4.2648214765
Br       3.3882971265   -0.4222989154    0.0835236965
Br       5.7130238153    3.2453600859    1.4190425756
H        0.0586869257    3.0682826663    1.4853913194
H        1.0662829431    1.4082924116   -0.0662098138
H        3.0292156370    2.0654354740    4.4459118056
H        5.2900400949    1.8134251981    3.9050264033
H        6.1113882592    0.2615878735    3.7961772541
H        5.9995188177    0.7549826597    1.1443646662
H        7.2848743088    1.4619175868    2.1625642617
19   
torsion grid (-135,)
C        0.0696187872    1.2171069005    1.4755429913
C        0.7625231189    0.2820135479    0.6996444286
C        2.1488788041    1.7547825243    2.6313651277
C        2.8369536384    0.8118382663    1.8569193363
C        0.7802528382    1.9390973863    2.4306179722
C        2.1266007472    0.0789180267    0.8859203189
C        4.9410580050    1.1004826265    3.0403971918
C        5.5735796307    2.4487399698    2.6746109465
O        4.1691999139    0.5460795281    1.9708462834
Br      -0.1317209437    3.2406886934    3.5022558546
Br       3.0406867862   -1.2112825721   -0.1867362579
Br       4.8114438993    4.0086326670    3.6374851937
H       -0.9932405072    1.3749804465    1.3304565062
H        0.2346253288   -0.2951731481   -0.0526070969
H        2.6678810329    2.3621301707    3.3610583911
H        4.3622171196    1.1475317248    3.9664659356
H        5.7418349411    0.3706578294    3.1851582647
H        5.4507972588    2.6541796940    1.6125495382
H        6.6314154024    2.4705047908    2.9301618898
19   
torsion grid (-120,)
C        0.2527624230    2.0331868783    2.3767508055
C        0.4130262765    1.2048597836    1.2606418457
C        2.5728286514    1.6030967635    2.9916660839
C        2.7274043980    0.7716168451    1.8738992707
C        1.3413960693    2.2184123203    3.2243680991
C        1.6318441104    0.5829834032    1.0083722821
C        5.0370359355    0.2713909478    2.3884939402
C        5.7425473906    1.6164514437    2.1409822838
O        3.8794976953    0.1145491377    1.5606315982
Br       1.1639364267    3.3543126410    4.7577308563
Br       1.8170748048   -0.5383128066   -0.5270832544
Br       6.0235109669    2.6691479834    3.7979338290
H       -0.6967296307    2.5196697478    2.5702859589
H       -0.4187572995    1.0433960043    0.5825675640
H        3.3959674468    1.7897958850    3.6693840385
H        4.7882528928    0.1186041234    3.4420316138
H        5.6817133875   -0.5456680325    2.0601790598
H        5.1459272924    2.2510753731    1.4882311098
H        6.7350338165    1.4882684117    1.7144431962
19   
torsion grid (-105,)
C        0.1766487010    0.9800217784    1.1850212897
C        0.9990110682    0.0884755745    0.4878092752
C        2.0986090152    1.6641467740    2.5214427800
C        2.9173419341    0.7631346207    1.8237922257
C        0.7442610509    1.7548592208    2.1925116003
C        2.3507020960   -0.0197416313    0.7991163742
C        4.8702604447    1.3669539831    3.0957653542
C        5.1339306242    2.7984731160    2.6035816512
O        4.2460744228    0.5850792709    2.0711435798
Br      -0.3546601107    2.9900562790    3.1613172338
Br       3.4500034375   -1.2422941353   -0.1724571172
Br       4.7867178597    4.1380224433    4.0189458231
H       -0.8763858023    1.0648909325    0.9410158402
H        0.5820617537   -0.5260306928   -0.3035279350
H        2.4972266193    2.2970420659    3.3049067564
H        4.2771598397    1.3474323552    4.0132905508
H        5.8120258681    0.8472905230    3.2773485937
H        4.4650417491    3.0604776804    1.7863347427
H        6.1653883574    2.9495572124    2.2924483537
19   
torsion grid (-90,)
C        4.6174183338    6.2511580618    4.0740593371
C        3.3381943228    5.9963376085    4.5796295233
C        4.5346174824    4.1274942498    2.8791444940
C        3.2526235703    3.8748047087    3.3910427864
C        5.1940561298    5.3075335192    3.2286633131
C        2.6618356120    4.8275766656    4.2437784922
C        3.0825523076    1.7634571368    2.2438224492
C        2.9383615737    2.2084653634    0.7860270006
O        2.5274828441    2.7525460857    3.1209106628
Br       6.9406881697    5.6251258653    2.5076956302
Br       0.9158562603    4.5136316942    4.9500364586
Br       4.3058473222    1.3360161014   -0.3438768515
H        5.1416785582    7.1637090165    4.3347644107
H        2.8647491739    6.7151830345    5.2405729306
H        5.0235942770    3.4262631045    2.2143398261
H        4.1206420876    1.5474515260    2.5074900836
H        2.4791704873    0.8751424828    2.4345149803
H        3.1080969728    3.2775370422    0.6754705705
H        1.9696618390    1.9460476122    0.3658152970
19   
torsion grid (-75,)
C        4.6211968425    6.2693536004    4.0741531340
C        3.3385754492    6.0032587899    4.5644934133
C        4.5749774133    4.1392671584    2.8875468646
C        3.2886872952    3.8753756421    3.3816237034
C        5.2176411368    5.3272666359    3.2408561472
C        2.6794692895    4.8257822767    4.2239995259
C        3.1247629062    1.7723487644    2.2095797776
C        2.9301727066    2.2251000909    0.7653371832
O        2.5772877621    2.7453010784    3.1084256536
Br       6.9707357509    5.6596494542    2.5428430071
Br       0.9290333585    4.4952328948    4.9099985404
Br       3.9573304830    1.0470885221   -0.4415529932
H        5.1331306321    7.1882136378    4.3371301987
H        2.8489843970    6.7199217242    5.2159850890
H        5.0811909276    3.4377931425    2.2364268227
H        4.1749254750    1.5713023037    2.4370170586
H        2.5496502967    0.8664985825    2.4050430760
H        3.3057826102    3.2318978813    0.5936588375
H        1.8879967270    2.1621439883    0.4577671686
19   
torsion grid (-60,)
C        2.4517616215   -1.4736157476   -0.2283031702
C        1.1763561160   -0.9737918394    0.0546277953
C        3.0372740023   -1.2209708210    2.1248442651
C        1.7569014190   -0.7207242861    2.4048642844
C        3.3627048828   -1.5884992055    0.8179162686
C        0.8309732011   -0.6007813976    1.3500856964
C        2.2443161743   -0.3672672896    4.7478673504
C        3.1378851912    0.8666476624    4.7134997359
O        1.3303365702   -0.3454687377    3.6436082137
Br       5.1219892789   -2.2637885438    0.4685342323
Br      -0.9176499160    0.0807729967    1.7008697726
Br       4.2958125724    0.8739205967    6.3120665798
H        2.7205716556   -1.7608354668   -1.2386281650
H        0.4462796807   -0.8730672009   -0.7419541637
H        3.7796560747   -1.3312158561    2.9049793950
H        1.6124406116   -0.3524998598    5.6364666756
H        2.8284173950   -1.2917905092    4.7561087661
H        2.5465817119    1.7800565161    4.7515974914
H        3.8017797113    0.8893233005    3.8515409784
19   
torsion grid (-45,)
C        2.4772405403   -1.4763101288   -0.2043963929
C        1.1928518539   -0.9850753856    0.0515892613
C        3.0214491404   -1.1997337135    2.1555551270
C        1.7322953317   -0.7074807944    2.4084055472
C        3.3719778735   -1.5750355774    0.8574297099
C        0.8228303230   -0.6039445606    1.3378710430
C        2.1844720508   -0.3527404779    4.7508114789
C        3.1036363676    0.8654632493    4.7277075242
O        1.2853725947   -0.3228666542    3.6376721524
Br       5.1427976690   -2.2359827029    0.5433016166
Br      -0.9378106629    0.0633317914    1.6530709648
Br       4.5327239093    0.6407670526    6.0718020366
H        2.7654691435   -1.7699021242   -1.2075046889
H        0.4755535593   -0.8977082617   -0.7580952820
H        3.7515434898   -1.2957173108    2.9492756181
H        1.5424262791   -0.3225725905    5.6323932171
H        2.7508962261   -1.2874635221    4.7870995068
H        2.5713739300    1.7805768697    4.9806811888
H        3.6081674531    0.9845722317    3.7708345801
19   
torsion grid (-30,)
C        2.5187058344   -1.4832471276   -0.1798053641
C        1.2241544497   -1.0099682263    0.0585506780
C        3.0357298094   -1.1659284336    2.1817778629
C        1.7352300102   -0.6940237375    2.4164646706
C        3.4047377179   -1.5519019137    0.8916815829
C        0.8351800894   -0.6181849014    1.3359819913
C        2.1627621794   -0.3262194467    4.7550434396
C        3.1139896339    0.8735672587    4.7191104825
O        1.2709836353   -0.3022438570    3.6373437562
Br       5.1898205819   -2.1854429939    0.6032845098
Br      -0.9389810914    0.0257218753    1.6245479966
Br       4.7739724288    0.4709530389    5.7134019760
H        2.8208843932   -1.7852843672   -1.1763247151
H        0.5130078946   -0.9453392836   -0.7586456015
H        3.7619814106   -1.2339865322    2.9821987046
H        1.5126589419   -0.2659626170    5.6293710075
H        2.7046128449   -1.2734756566    4.8193515342
H        2.6810036925    1.7606633329    5.1767512570
H        3.4311752177    1.1036969908    3.7038200662
19   
torsion grid (-15,)
C        0.2632204252   -0.0033936464    1.2925730117
C        0.4394072467    0.9602990062    2.2912676711
C        2.6473804613   -0.5061740613    1.3987560835
C        2.8163818827    0.4566457531    2.4051849247
C        1.3757924057   -0.7209332435    0.8624786266
C        1.6966552814    1.1914060289    2.8406770502
C        5.1775110183    0.0347182555    2.5794844106
C        5.7002975737    0.5843387847    1.2430370718
O        4.0082143078    0.7363015858    3.0062635951
Br       1.1697571520   -2.0428843676   -0.5093186588
Br       1.9067083698    2.5184489396    4.1979179377
Br       6.3380429182   -0.8618729229    0.0516712146
H       -0.7168266376   -0.1813886603    0.8642139553
H       -0.4108847999    1.5353734603    2.6432907453
H        3.4852524210   -1.0808089909    1.0233283128
H        5.9053710667    0.2173529185    3.3718393345
H        5.0040498684   -1.0439212106    2.5395066764
H        6.5410236452    1.2629209460    1.3704039041
H        4.9089230552    1.0862889313    0.6898317153
19   
torsion grid (0,)
C        2.0627138208   -2.5843030821    5.4147871870
C        3.3134320496   -2.5260895273    4.7906677680
C        1.1495137848   -1.1698202804    3.6508860979
C        2.4037551794   -1.1186172892    3.0272146113
C        0.9996511071   -1.9008735333    4.8307829609
C        3.4858892291   -1.8031893919    3.6142904453
C        1.6011265066    0.2589865943    1.2134481318
C        1.2912827294    1.6080616586    1.8861541137
O        2.6569245665   -0.4444206392    1.8697998390
Br      -0.7265771856   -1.9496251466    5.6619650431
Br       5.2081922933   -1.7417429182    2.7901624228
Br      -0.6223737100    1.8261247620    2.3580921684
H        1.9303561004   -3.1461426682    6.3326536242
H        4.1597931231   -3.0487398845    5.2245158907
H        0.2985223382   -0.6399934512    3.2422357041
H        1.9949902655    0.4366002269    0.2107736255
H        0.7080954379   -0.3630347365    1.1051727807
H        1.5222477155    2.4523758106    1.2402980369
H        1.8376553723    1.7074967252    2.8224602866
19   
torsion grid (15,)
C        3.1101022574   -1.4102104756    0.1498946487
C        1.8464417890   -0.8085801291    0.1670597576
C        2.9401211870   -1.7713619108    2.5554665799
C        1.6745051584   -1.1669014482    2.5679338749
C        3.6350761724   -1.8822706191    1.3488508800
C        1.1367507605   -0.6874605021    1.3569214051
C        1.4308157013   -1.4848888246    4.9357126610
C        0.3862718772   -1.1477532998    5.9937381879
O        0.9149381371   -1.0150414894    3.6846212571
Br       5.3624166998   -2.7132791760    1.3577348483
Br      -0.5853826575    0.1361005411    1.3539516664
Br       0.9009347336    0.4050885162    7.1063208299
H        3.6631920742   -1.5042121934   -0.7779092984
H        1.4140423567   -0.4324065976   -0.7544852345
H        3.3853064200   -2.1518193856    3.4657124322
H        1.5847918044   -2.5706753761    4.8860967271
H        2.3838229619   -0.9890662745    5.1425549711
H        0.2493644128   -1.9634922232    6.7008530937
H       -0.5632542889   -0.8956258223    5.5258757471
19   
torsion grid (30,)
C        3.0974886771   -1.3907118048    0.1525363398
C        1.8535923025   -0.7500737603    0.1885132550
C        2.9204781776   -1.8015524702    2.5491042013
C        1.6744080840   -1.1589236221    2.5800945603
C        3.6095267205   -1.9067421013    1.3388931058
C        1.1497095058   -0.6338327620    1.3824259456
C        1.4430609206   -1.5078096826    4.9415980600
C        0.4266838360   -1.1659579141    6.0152174057
O        0.9237618229   -1.0141485711    3.7031128744
Br       5.3086133709   -2.7937264912    1.3270516667
Br      -0.5434102342    0.2462712194    1.4013605626
Br       0.7433870122    0.6149316601    6.8127830797
H        3.6449627886   -1.4801291683   -0.7790327051
H        1.4313214220   -0.3382366874   -0.7224121304
H        3.3553427214   -2.2172639321    3.4489084803
H        1.5698581083   -2.5976417030    4.8835057775
H        2.4070514869   -1.0295292934    5.1424465122
H        0.4910040956   -1.8626713365    6.8496381590
H       -0.5831016190   -1.1574863631    5.6087883811
19   
torsion grid (45,)
C        3.1557017971   -1.4006916988    0.1701161589
C        1.9227167123   -0.7383234570    0.1855774404
C        2.9159561587   -1.8414057381    2.5550581114
C        1.6820715319   -1.1749891876    2.5656756067
C        3.6313211115   -1.9428081980    1.3600505376
C        1.1929288880   -0.6249488254    1.3641725552
C        1.4049537831   -1.5192307567    4.9201436962
C        0.3958328838   -1.1534954206    5.9859716501
O        0.9108631419   -1.0278002586    3.6740306607
Br       5.3149265348   -2.8599121558    1.3763418864
Br      -0.4847319598    0.2847487180    1.3565698940
Br       0.4785543710    0.7637324997    6.4553832214
H        3.7231903052   -1.4864625934   -0.7497274082
H        1.5296767505   -0.3060549422   -0.7289657024
H        3.3208360451   -2.2790213292    3.4584634170
H        1.5018788401   -2.6138252749    4.8782961147
H        2.3819705833   -1.0739791182    5.1371660729
H        0.6009167171   -1.6935564500    6.9096468211
H       -0.6218907322   -1.3488934560    5.6515081768
19   
torsion grid (60,)
C        3.3012474619   -1.1442500763    0.6740484055
C        1.9857501856   -0.6660710182    0.6570771590
C        3.1369973104   -1.4237262733    3.0896639154
C        1.8215456591   -0.9384990633    3.0677127609
C        3.8547058917   -1.5163270618    1.8952059417
C        1.2523832372   -0.5633084157    1.8345687924
C        1.5981115174   -1.1386782407    5.4408567352
C        0.5699754421   -0.8441854892    6.5093116303
O        1.0436879953   -0.8069601699    4.1740998756
Br       5.6544664441   -2.1752722128    1.9577399811
Br      -0.5400528134    0.0895867820    1.7823537608
Br       0.1085756534    1.0742061664    6.5885771440
H        3.8711087626   -1.2213673254   -0.2451353762
H        1.5306382050   -0.3696622303   -0.2824768397
H        3.6043359562   -1.7263222782    4.0178252673
H        1.8281725363   -2.2149377426    5.4775854314
H        2.5259975851   -0.5859330710    5.6294701785
H        0.9556046571   -1.1135898509    7.4920457355
H       -0.3655906195   -1.3671287754    6.3148605720
19   
torsion grid (75,)
C        2.6860626054   -1.0594342016    0.1559844341
C        1.4869599591   -0.4196295753    0.4912560182
C        2.8884551021   -1.8250649277    2.4613544807
C        1.6899961121   -1.1772394763    2.7930597206
C        3.3671809982   -1.7534524874    1.1511871253
C        0.9923607680   -0.4754013932    1.7901168383
C        1.8379123601   -1.8345242220    5.0856753542
C        1.0760999278   -1.6599386029    6.3850410054
O        1.1433801862   -1.1801493633    4.0370313689
Br       5.0140586482   -2.6399303742    0.7270408515
Br      -0.6448560667    0.4034804290    2.2233155107
Br       0.5835160292    0.2201639383    6.7285271614
H        3.0710304203   -1.0126161521   -0.8565266950
H        0.9364015054    0.1282784012   -0.2666517415
H        3.4464525810   -2.3794421454    3.2049247920
H        1.8874340487   -2.9157520168    4.8808631560
H        2.8720426319   -1.4832676655    5.1873937317
H        1.6790760815   -1.9966621689    7.2273969339
H        0.1289684387   -2.1974712097    6.3646832682
19   
torsion grid (90,)
C        0.4987188642    1.5948083844    1.1683051192
C        1.3958622348    0.7826862037    0.4666681114
C        2.1240611525    1.7735996652    2.9752451657
C        3.0241882397    0.9690728732    2.2644921600
C        0.8814687666    2.0760212027    2.4170832932
C        2.6421581829    0.4739259347    1.0037852548
C        4.8480274453    1.3509112191    3.7810322701
C        5.1767427167    2.8173701320    3.4639197435
O        4.2532231536    0.6057094395    2.7296687215
Br      -0.3211622475    3.1897091950    3.4117403613
Br       3.8514793347   -0.6171307041    0.0131186563
Br       5.6029608057    3.1183148029    1.5619712237
H       -0.4682151466    1.8427558538    0.7450331226
H        1.1245225219    0.3951651050   -0.5100248676
H        2.3744624013    2.1586252476    3.9554538506
H        4.2078283663    1.3375628715    4.6749461256
H        5.7534545300    0.8068447409    4.0526465571
H        6.0401543798    3.1432435051    4.0429629194
H        4.3395925807    3.4844584845    3.6590143779
19   
torsion grid (105,)
C        0.5024283525    1.9553594994    1.4168817713
C        1.2072931009    0.9957218751    0.6823324188
C        2.3242394391    2.0068334436    3.0341797659
C        3.0267029273    1.0454522021    2.2955794976
C        1.0781232550    2.4456734167    2.5852165904
C        2.4515180797    0.5448524685    1.1121553308
C        4.8944971077    1.0428844617    3.8066303813
C        5.5205140625    2.4539613899    3.6960523954
O        4.2425148411    0.5450227142    2.6493492043
Br       0.1508978984    3.7718586494    3.6139164969
Br       3.3902309665   -0.7590360386    0.0828100824
Br       5.6918597716    3.1166223855    1.8485867967
H       -0.4652851534    2.3083386986    1.0785466116
H        0.7832816546    0.5974650292   -0.2338254353
H        2.7365924880    2.4254133756    3.9426636907
H        4.2040978749    1.0373875084    4.6599997167
H        5.6708874346    0.3118103740    4.0358068061
H        6.5250440719    2.4588779576    4.1159902090
H        4.9216761019    3.2103201614    4.2002350482
19   
torsion grid (120,)
C        0.4798364666    1.4822646347    1.1086624954
C        1.3579658094    0.6149807074    0.4501743970
C        2.2091462735    1.9233900598    2.7669464907
C        3.0833145183    1.0478455596    2.1088289953
C        0.9249279778    2.1246225096    2.2606885902
C        2.6421308294    0.3981376675    0.9409801934
C        4.8159570089    1.3172244726    3.7515711782
C        5.3467081334    2.7767620741    3.7069378333
O        4.3530251076    0.7784860752    2.5221500342
Br      -0.2421658846    3.3374749663    3.1796799274
Br       3.8191489178   -0.7855092137    0.0150406741
Br       5.2168866283    3.6549734490    1.9471531666
H       -0.5199360060    1.6510843989    0.7246340288
H        1.0380557098    0.1034113060   -0.4518753401
H        2.5232072513    2.4692396542    3.6469445280
H        4.0346990885    1.2363478623    4.5149861799
H        5.6300401442    0.6553767650    4.0521423269
H        6.4037722780    2.8125470311    3.9632800877
H        4.7953070839    3.4238976027    4.3876825758
19   
torsion grid (135,)
C        0.4481300017    1.2357797019    1.0259915879
C        1.4343237929    0.4920538065    0.3701565970
C        2.0932852830    1.8750000777    2.7064094932
C        3.0762252027    1.1195251330    2.0523366659
C        0.7991567488    1.9177062528    2.1880971578
C        2.7303684573    0.4313069172    0.8742599471
C        4.7483111890    1.5102542137    3.7489623673
C        5.3012285398    2.9567031103    3.7431879983
O        4.3662399734    1.0027910631    2.4746807045
Br      -0.5203496007    2.9660850487    3.1035826037
Br       4.0532911117   -0.5915276343   -0.0477641693
Br       4.8139095426    4.0349712225    2.1662187899
H       -0.5614399081    1.2815656786    0.6332990544
H        1.1899292666   -0.0475676667   -0.5391170110
H        2.3301484857    2.4547030107    3.5887112019
H        3.9288499213    1.4061176355    4.4648010702
H        5.5606139298    0.8454600613    4.0529293368
H        6.3893581479    2.9548330795    3.7355709322
H        4.9511089093    3.5140406936    4.6114819705
19   
torsion grid (150,)
C        0.5540823408    1.0921684681    0.8679094523
C        1.5657066836    0.2527611689    0.3911315598
C        2.0883045524    1.9170817706    2.5739371850
C        3.0960785995    1.0647868412    2.1018432595
C        0.8377956801    1.9131764966    1.9562335843
C        2.8179758589    0.2353733097    0.9987529666
C        4.6565138730    1.5820440639    3.8858988953
C        5.4244853747    2.9058348992    3.7616047042
O        4.3492494482    0.9806111899    2.6291897652
Br      -0.5170125128    3.0942027371    2.6255991876
Br       4.1752775929   -0.9254704681    0.3219818240
Br       4.8748041270    4.0331437611    2.2386953471
H       -0.4221922007    1.1037952426    0.3964294745
H        1.3750824168   -0.3968598039   -0.4570247376
H        2.2759074642    2.6062473034    3.3862752445
H        3.7637885800    1.6814445566    4.5066590441
H        5.3375612330    0.8583388192    4.3450007365
H        6.4820888385    2.7221237013    3.5810882026
H        5.3092169236    3.5077144834    4.6631273607
19   
torsion grid (165,)
C        0.4904262660    0.9481427868    1.0464687504
C        1.5065796343    0.2450699435    0.3929351560
C        2.1379587217    1.8051720132    2.6255927319
C        3.1516706606    1.0837347539    1.9787582025
C        0.8275332746    1.7192492541    2.1568700744
C        2.8194984849    0.3058813159    0.8539988628
C        4.8319640601    1.3674425350    3.7074674955
C        5.6594580702    2.6384273369    3.8375360063
O        4.4625039540    1.1127653764    2.3490752429
Br      -0.5395188387    2.7123878120    3.0638791705
Br       4.1824048838   -0.6789602311   -0.0525065386
Br       4.8261583822    4.2044233441    2.9707913015
H       -0.5330458785    0.8949320313    0.6923757279
H        1.2724732559   -0.3627975484   -0.4750261403
H        2.3697646076    2.4568528652    3.4579743136
H        3.9621832380    1.3713223188    4.3670126425
H        5.4869619018    0.5273624781    3.9696308129
H        6.6203201325    2.5284382687    3.3370830081
H        5.8150202783    2.8941593618    4.8859512351
19   
torsion grid (180,)
C        0.6853563132    1.1633390948    0.7372666644
C        1.8582146380    0.5404526131    0.3025010602
C        1.7268366743    1.5576667586    2.9018364511
C        2.9097112303    0.9568632787    2.4521199442
C        0.6389881037    1.6635837514    2.0380837620
C        2.9615924993    0.4393212368    1.1479784325
C        4.4665318120    1.8750400220    4.0638487356
C        5.5607995824    2.6607597879    3.3644203903
O        3.9976380152    0.7838389438    3.2645236261
Br      -0.9636472870    2.5061517375    2.6687163063
Br       4.5631074595   -0.3830871728    0.5160383871
Br       4.9135956819    3.5851995277    1.7412413766
H       -0.1689123954    1.2518670939    0.0752458249
H        1.9181090958    0.1437544629   -0.7057802817
H        1.6538787925    1.9296538995    3.9173504794
H        3.6517101200    2.5303848181    4.3812150355
H        4.9072969869    1.3977013334    4.9460703306
H        6.3591088626    2.0024671770    3.0249988459
H        5.9598385250    3.4346116264    4.0213986698
