21   
torsion grid (-165,)
O       -0.7080092245    2.5680170636   -0.5265116811
C       -0.1418318245    1.9167712822   -1.7008845297
C        1.2985386288    1.5833090154   -1.3502071283
O        1.3452082789    0.8091092663   -0.1371098499
H        1.8498485081    2.5249259143   -1.2048699483
C        1.9954558216    0.7755143876   -2.4434929207
O        2.1762100857    1.5719821547   -3.6092485249
P        1.2542504965    1.2011037726   -4.9673538167
O        1.9895115619   -0.2311967746   -5.4191999071
C        3.3071232999   -0.1309508202   -5.9454643064
O       -0.1271711088    0.8166388013   -4.5217712284
O        1.5770695396    2.2717769860   -5.9651801744
H       -1.6566594569    2.6711070656   -0.6905647202
H       -0.6939722201    1.0014003857   -1.9362439276
H       -0.1809650839    2.5715235456   -2.5735272250
H        0.6624020916    1.2021055835    0.4335226627
H        1.4194826125   -0.1309268399   -2.6556778169
H        2.9840811712    0.4779192737   -2.0707016787
H        3.5401548073   -1.0842141615   -6.4355116206
H        4.0394604495    0.0527321195   -5.1457115616
H        3.3759505203    0.6825416856   -6.6766085486
21   
torsion grid (-150,)
O       -0.7562478664    2.7846381332   -0.7983275557
C       -0.1133728960    2.1477661261   -1.9407353944
C        1.3236401449    1.8795763185   -1.5260539200
O        1.3514973170    1.1199504165   -0.3032131690
H        1.8280154488    2.8452465433   -1.3685060037
C        2.0998204863    1.0915988209   -2.5796636021
O        2.2932405630    1.8821080980   -3.7474528944
P        1.4471521004    1.4522566756   -5.1374020901
O        2.2501390202    0.0390097678   -5.5283288364
C        3.5782228121    0.1625673526   -6.0231643643
O        0.0616986104    1.0255151615   -4.7460758142
O        1.7757768435    2.5171982546   -6.1396400504
H       -1.7010068803    2.8426632910   -1.0021136865
H       -0.6156671574    1.2075680737   -2.1894028786
H       -0.1430538816    2.7924163714   -2.8212273283
H        0.6285515990    1.4885013175    0.2332842048
H        1.5734390055    0.1580210790   -2.8029255752
H        3.0843505590    0.8423132559   -2.1632504722
H        3.7636779607   -0.6776029843   -6.7043489329
H        4.3060150449    0.1282649191   -5.1990838845
H        3.7061798147    1.1016369717   -6.5725165286
21   
torsion grid (-135,)
O       -0.7792812640    2.8795990864   -0.8942835272
C       -0.1170899892    2.2288883356   -2.0177506802
C        1.3211562590    1.9952225161   -1.5870956647
O        1.3529712286    1.2621547089   -0.3481507874
H        1.8070432480    2.9728840554   -1.4463852525
C        2.1198781184    1.1992830876   -2.6176597473
O        2.3113463161    1.9689140258   -3.7995395597
P        1.4841871439    1.4976106915   -5.1877498099
O        2.3038565037    0.0840728290   -5.5382186920
C        3.6283621542    0.1980491235   -6.0459133774
O        0.0993382710    1.0650251575   -4.8005511120
O        1.8125712153    2.5443873753   -6.2091344529
H       -1.7228094523    2.9203391633   -1.1077496881
H       -0.6012376041    1.2746598770   -2.2484668459
H       -0.1515971033    2.8528237562   -2.9128251840
H        0.6200360541    1.6295141624    0.1754256662
H        1.6113519538    0.2525068710   -2.8265099536
H        3.1043556631    0.9750771182   -2.1871743799
H        3.7360365198   -0.4913494009   -6.8938811326
H        4.3571951603   -0.0708663408   -5.2676988183
H        3.8327472393    1.2145459992   -6.3974880141
21   
torsion grid (-120,)
O       -0.7803863189    2.8077906358   -0.8358895666
C       -0.1291114811    2.1586209328   -1.9666162927
C        1.3197815505    1.9487801641   -1.5604468031
O        1.3843799090    1.2234503111   -0.3181349628
H        1.7935937447    2.9342414695   -1.4338783002
C        2.1119215391    1.1586415326   -2.6004267627
O        2.2755138507    1.9256227383   -3.7882067018
P        1.4359863619    1.4344105709   -5.1622899834
O        2.2523332968    0.0151706142   -5.4970109804
C        3.5771940016    0.1207315000   -6.0064690861
O        0.0544318834    1.0076773559   -4.7569292753
O        1.7572165341    2.4662687586   -6.2007739285
H       -1.7278495506    2.8352952830   -1.0334816207
H       -0.6034211530    1.1956267867   -2.1811563266
H       -0.1890319820    2.7746119939   -2.8657883035
H        0.6557867624    1.5833792930    0.2165361866
H        1.6124455275    0.2045481558   -2.7976700734
H        3.1056223691    0.9481891849   -2.1844154423
H        3.6234816749   -0.3580758447   -6.9942374641
H        4.2694736110   -0.3962862319   -5.3271847102
H        3.8884368921    1.1639106818   -6.1167753617
21   
torsion grid (-105,)
O       -0.8012665847    2.9672966170   -1.1593045041
C       -0.0969997011    2.3184378815   -2.2579253081
C        1.3472029967    2.1710183762   -1.8098160861
O        1.4050924622    1.4748130731   -0.5506304387
H        1.7811531271    3.1758135429   -1.6927329837
C        2.1950131592    1.3890947497   -2.8113147885
O        2.3630378825    2.1374499706   -4.0103518196
P        1.5787659885    1.5888426097   -5.3953465669
O        2.4608135378    0.1978306521   -5.6798544491
C        3.8052871971    0.3610777348   -6.1177188905
O        0.2049986386    1.1149452864   -5.0166252323
O        1.8872368541    2.6123790260   -6.4455385998
H       -1.7432604567    2.9579457073   -1.3830311502
H       -0.5300957312    1.3341697925   -2.4629307169
H       -0.1552421599    2.9122872113   -3.1719892257
H        0.6500713556    1.8188124526   -0.0428256719
H        1.7356087342    0.4137643752   -3.0017941485
H        3.1839652310    1.2233266847   -2.3648505269
H        3.8805844394    0.1369351134   -7.1905972842
H        4.4365076307   -0.3476907031   -5.5644465858
H        4.1745702732    1.3773727633   -5.9496141673
21   
torsion grid (-90,)
O       -0.7890407380    2.9169388889   -1.0555284383
C       -0.1054811125    2.2541084842   -2.1588209415
C        1.3440445990    2.0991626946   -1.7302558084
O        1.4149944618    1.4152508683   -0.4651889967
H        1.7878071532    3.1015034526   -1.6297446176
C        2.1698162684    1.3001352663   -2.7366075351
O        2.3188534357    2.0330833905   -3.9477467253
P        1.5070068743    1.4720056764   -5.3113850241
O        2.3990836517    0.0901854753   -5.6126153626
C        3.7350954704    0.2844528961   -6.0626898094
O        0.1478450450    0.9857906792   -4.8974015844
O        1.7796971074    2.4928394647   -6.3739295202
H       -1.7347877420    2.9075786089   -1.2627778036
H       -0.5488182461    1.2718903822   -2.3508385648
H       -0.1719723535    2.8423551943   -3.0760255471
H        0.6695363231    1.7696051080    0.0496191305
H        1.7016325671    0.3253064263   -2.9066555407
H        3.1661119444    1.1346952745   -2.3065827810
H        3.7698013305    0.3376736258   -7.1588915900
H        4.3251838364   -0.5804332836   -5.7318560848
H        4.1799272862    1.1974826623   -5.6520109668
21   
torsion grid (-75,)
O       -0.7826309198    2.9206494774   -1.2123862784
C       -0.0615142508    2.2717595116   -2.2999116967
C        1.3833969559    2.1568026964   -1.8440006069
O        1.4487857652    1.4798901608   -0.5748823332
H        1.7986564549    3.1709039223   -1.7397245995
C        2.2485055418    1.3760092261   -2.8314938937
O        2.4017885289    2.1086658182   -4.0422458096
P        1.6276362306    1.5264808096   -5.4184636332
O        2.5725256833    0.1787803794   -5.7149710446
C        3.9035207280    0.4329903198   -6.1485246103
O        0.2809827685    0.9919917179   -5.0237847097
O        1.8776896445    2.5594906339   -6.4748797327
H       -1.7237623760    2.8859020503   -1.4372129297
H       -0.4751233586    1.2774255114   -2.4958327779
H       -0.1264513916    2.8546632622   -3.2206534983
H        0.6851010596    1.8167478183   -0.0752726990
H        1.8087378968    0.3890094189   -3.0068816264
H        3.2403941349    1.2378879030   -2.3820280770
H        3.9192699748    0.7570458495   -7.1966583258
H        4.4621331052   -0.5067210549   -6.0528829034
H        4.3903549992    1.2019122708   -5.5354523218
21   
torsion grid (-60,)
O       -0.7984237030    2.9307218785   -1.1652854829
C       -0.0857573949    2.2647254876   -2.2480405272
C        1.3627139162    2.1566667063   -1.8016349383
O        1.4379221792    1.5007941789   -0.5221105827
H        1.7790890911    3.1721844920   -1.7173679615
C        2.2196354813    1.3593089985   -2.7830898951
O        2.3606729677    2.0703659385   -4.0080846798
P        1.5733384893    1.4643383273   -5.3661829996
O        2.5219147281    0.1177732311   -5.6561359427
C        3.8426385828    0.3715922770   -6.1193731196
O        0.2345780592    0.9283722797   -4.9476211657
O        1.8033212382    2.4831729443   -6.4409039900
H       -1.7414737534    2.8900842745   -1.3808776873
H       -0.5008930686    1.2676050001   -2.4254883700
H       -0.1577441187    2.8335527918   -3.1770482015
H        0.6780917786    1.8459670803   -0.0222866574
H        1.7792339324    0.3689425641   -2.9364905735
H        3.2159365903    1.2303780952   -2.3406855008
H        3.8276823066    0.9216826103   -7.0676947552
H        4.3303993052   -0.6002650967   -6.2631249862
H        4.4171691727    0.9558512024   -5.3870017831
21   
torsion grid (-45,)
O       -0.7971707726    2.9919108405   -1.4075740549
C       -0.0316496037    2.3618236068   -2.4756711580
C        1.4087516063    2.3105566542   -1.9944330988
O        1.4796253767    1.6510616063   -0.7165000143
H        1.7810431359    3.3417179906   -1.8952374081
C        2.3213724753    1.5544750564   -2.9582554391
O        2.4640345591    2.2776925240   -4.1758994360
P        1.7367346875    1.6471094299   -5.5562501169
O        2.7375658190    0.3342168271   -5.8221504099
C        4.0591423125    0.6212252435   -6.2628459093
O        0.4063865651    1.0636604287   -5.1762412374
O        1.9596038251    2.6766778405   -6.6223615084
H       -1.7322252348    2.9140870339   -1.6465024156
H       -0.4011282125    1.3495468021   -2.6677165282
H       -0.1043901099    2.9322656359   -3.4036077716
H        0.6942638370    1.9619445704   -0.2339353409
H        1.9254917952    0.5479230150   -3.1271532845
H        3.3107561591    1.4633335798   -2.4916375614
H        4.0531555991    1.3778512528   -7.0555164392
H        4.4926367835   -0.3129232150   -6.6400758412
H        4.6783176867    0.9927689782   -5.4328600638
21   
torsion grid (-30,)
O       -0.8461553890    3.0449518329   -1.4580005032
C       -0.0586303322    2.4174542211   -2.5115752753
C        1.3790710741    2.4071998303   -2.0200476990
O        1.4565014640    1.7669803702   -0.7326491005
H        1.7259917399    3.4482021919   -1.9325142921
C        2.3165860617    1.6602292062   -2.9669171359
O        2.4529456773    2.3706248529   -4.1927763984
P        1.7535892738    1.7032422787   -5.5705981388
O        2.7713849315    0.3964011164   -5.7959250629
C        4.0930123936    0.6727941973   -6.2441648971
O        0.4248175809    1.1111449507   -5.1985065822
O        1.9795002928    2.7157627539   -6.6524315261
H       -1.7773760636    2.9430578363   -1.7027888279
H       -0.4029708154    1.3939233242   -2.6905081383
H       -0.1383548420    2.9717039681   -3.4486563840
H        0.6608075678    2.0659229889   -0.2595762042
H        1.9455977972    0.6425177738   -3.1255380355
H        3.3038007342    1.5979202333   -2.4911317277
H        4.1187967302    1.5766906868   -6.8621457582
H        4.4395341880   -0.1877160471   -6.8299946897
H        4.7689580475    0.8144358625   -5.3873512517
21   
torsion grid (-15,)
O       -0.5396682863    3.1607813155   -1.2511985538
C        0.1848259095    2.6116923012   -2.3903545336
C        1.5101254991    2.1041095024   -1.8477372375
O        1.2803895244    1.1822109972   -0.7657145402
H        2.0893019086    2.9643866964   -1.4787422790
C        2.3380863538    1.3790693210   -2.9070900016
O        2.7852699915    2.2951795615   -3.9004181258
P        2.1084973680    2.1796792194   -5.4374209790
O        2.7761923492    0.7291194060   -5.9305254288
C        4.1635175815    0.7157257607   -6.2472130137
O        0.6379578668    1.9097156089   -5.2978059633
O        2.7136427471    3.3102309032   -6.2135298433
H       -1.4326222599    3.3724602535   -1.5599056584
H       -0.3775492569    1.7882782392   -2.8420119641
H        0.3510358949    3.3705886144   -3.1572026544
H        0.5336059498    1.5621306224   -0.2714942335
H        1.7494559095    0.5640533176   -3.3405552773
H        3.2179525227    0.9453348239   -2.4146364743
H        4.5542916312    1.7303421613   -6.3736348607
H        4.3037422020    0.1554608030   -7.1809394951
H        4.7260662286    0.2139390721   -5.4459810172
21   
torsion grid (0,)
O       -0.5620505480    3.0501261166   -1.1842713238
C        0.1453773581    2.5023176296   -2.3347399944
C        1.4867807812    2.0125027043   -1.8160727591
O        1.2888441679    1.0937705624   -0.7250281612
H        2.0633873425    2.8811273169   -1.4629906683
C        2.3020349142    1.2910563345   -2.8876321587
O        2.7222914464    2.2069922789   -3.8927666426
P        2.0183876770    2.0783959478   -5.4166437535
O        2.6806720829    0.6253739834   -5.9093094741
C        4.0645124415    0.6103965028   -6.2420494547
O        0.5512034716    1.8055977910   -5.2490528719
O        2.6078374604    3.2046153592   -6.2106982416
H       -1.4625834985    3.2525738536   -1.4767450795
H       -0.4169294506    1.6699852336   -2.7699255446
H        0.2875388968    3.2580882489   -3.1094305946
H        0.5479618972    1.4681009224   -0.2178385101
H        1.7138210787    0.4683784098   -3.3070147546
H        3.1948549476    0.8679400731   -2.4094713818
H        4.5226410732    1.5968887393   -6.1235710706
H        4.1818423624    0.2948759501   -7.2877927626
H        4.5840784045   -0.1102033418   -5.5946429562
21   
torsion grid (15,)
O       -0.5447855405    3.1498945731   -1.2921070796
C        0.1746892524    2.5878687845   -2.4281042743
C        1.5202106359    2.1266403257   -1.8940377250
O        1.3298378930    1.2280876186   -0.7850508990
H        2.0838452107    3.0099402460   -1.5567650771
C        2.3490166901    1.3941107084   -2.9474391092
O        2.7603593502    2.2950062892   -3.9697781801
P        2.0647232874    2.1245837327   -5.4933786506
O        2.7550806988    0.6732420476   -5.9522041552
C        4.1491619220    0.6800550187   -6.2395553327
O        0.6015964669    1.8305977810   -5.3259439096
O        2.6396859818    3.2431208640   -6.3083024946
H       -1.4468221140    3.3337823582   -1.5921128708
H       -0.3746993029    1.7393944719   -2.8483515464
H        0.3103153469    3.3294016924   -3.2176048644
H        0.5819388360    1.6029167101   -0.2886351076
H        1.7734474912    0.5553026000   -3.3520626987
H        3.2456964251    0.9928630526   -2.4577377052
H        4.6417826616    1.5850552619   -5.8707369619
H        4.3071843015    0.6267846990   -7.3256200919
H        4.6055042760   -0.2011610323   -5.7689806952
21   
torsion grid (30,)
O       -0.5879552027    2.8530733884   -1.0092575589
C        0.0787184324    2.3006096782   -2.1815119993
C        1.4415621705    1.8219060455   -1.7102425044
O        1.2903975772    0.9104850309   -0.6058205349
H        2.0260878772    2.6963812733   -1.3857354109
C        2.2191405926    1.0968729800   -2.8069679919
O        2.5925980602    2.0083370447   -3.8345538292
P        1.8301929390    1.8649037055   -5.3282779220
O        2.5123594041    0.4299650598   -5.8485267447
C        3.8972536897    0.4671306536   -6.1743333413
O        0.3783185892    1.5558692191   -5.1009636404
O        2.3599538777    3.0034239893   -6.1460459455
H       -1.5003029406    3.0475705864   -1.2686480713
H       -0.4946364862    1.4622374375   -2.5897574474
H        0.1876311547    3.0519725414   -2.9658959861
H        0.5672730102    1.2847048717   -0.0735343354
H        1.6203986903    0.2676599350   -3.1972910913
H        3.1331057881    0.6833356620   -2.3614042504
H        4.4381228901    1.2141028443   -5.5827254973
H        4.0349614751    0.7154505233   -7.2353588557
H        4.3162804937   -0.5280829749   -5.9783034019
21   
torsion grid (45,)
O       -0.5759340708    2.8830207057   -1.0924921422
C        0.1084329436    2.3238144602   -2.2512517254
C        1.4712901506    1.8646700122   -1.7605632841
O        1.3183850708    0.9668600372   -0.6453963898
H        2.0443710693    2.7490493048   -1.4424671151
C        2.2657571300    1.1324730797   -2.8403154711
O        2.6362241571    2.0330849915   -3.8785411519
P        1.8861933548    1.8605498710   -5.3751232203
O        2.6068497717    0.4388234672   -5.8808856962
C        3.9920703045    0.5182457256   -6.1959524706
O        0.4407840623    1.5194790259   -5.1529701564
O        2.3930541578    3.0037690612   -6.2008801796
H       -1.4886087582    3.0611518676   -1.3622485865
H       -0.4519741828    1.4751897567   -2.6560936155
H        0.2180830900    3.0677253000   -3.0426760782
H        0.5858829208    1.3405839271   -0.1257034432
H        1.6793586867    0.2908860402   -3.2226624871
H        3.1811674966    0.7363356077   -2.3820193465
H        4.5479631784    1.0832880023   -5.4369750626
H        4.1437524744    1.0125632317   -7.1640048668
H        4.3790125858   -0.5071219227   -6.2425191224
21   
torsion grid (60,)
O       -0.6005470756    2.8518448450   -0.9984716360
C        0.0661352711    2.2827686746   -2.1627147328
C        1.4361525463    1.8271567391   -1.6888805526
O        1.3000032955    0.9391660171   -0.5637437772
H        2.0144011521    2.7139693469   -1.3873091637
C        2.2135906672    1.0853109638   -2.7744631471
O        2.5667502345    1.9764970762   -3.8266951470
P        1.7910443128    1.7923960122   -5.3085921681
O        2.5120229598    0.3733337362   -5.8218809557
C        3.8878277548    0.4627986332   -6.1717918906
O        0.3522468504    1.4428777425   -5.0587475788
O        2.2737506866    2.9351615064   -6.1494374826
H       -1.5174129194    3.0270766011   -1.2556132436
H       -0.5004839997    1.4311459110   -2.5522580036
H        0.1641562679    3.0203478704   -2.9615929346
H        0.5756736534    1.3177413298   -0.0361599382
H        1.6212938918    0.2401309504   -3.1393626421
H        3.1365399034    0.6938353149   -2.3273755048
H        4.4952197634    0.7988367787   -5.3197900363
H        4.0376271312    1.1655024850   -7.0001690664
H        4.2144992693   -0.5400946927   -6.4722753403
21   
torsion grid (75,)
O       -0.6341829495    2.8525357316   -0.8526603271
C       -0.0086230752    2.2443527062   -2.0200315465
C        1.3696827901    1.7855305487   -1.5741641978
O        1.2568722819    0.9306274597   -0.4211179035
H        1.9664331408    2.6733560008   -1.3145300975
C        2.1072225762    1.0046213422   -2.6603790130
O        2.4417097748    1.8613874671   -3.7465760198
P        1.6173222839    1.6526891459   -5.1988107027
O        2.3048859696    0.2150626699   -5.7043496809
C        3.6643938039    0.2720363204   -6.1181487942
O        0.1835894686    1.3245706262   -4.8963984663
O        2.0835336430    2.7724794550   -6.0791519669
H       -1.5557320480    3.0334487679   -1.0882202737
H       -0.5959922638    1.3893880451   -2.3693907172
H        0.0737497103    2.9589920030   -2.8411902764
H        0.5525559594    1.3321804873    0.1164702919
H        1.4950341220    0.1570359205   -2.9847473699
H        3.0377228892    0.6144748868   -2.2281018370
H        4.3370184476    0.3607905737   -5.2523562531
H        3.8368954659    1.1216444495   -6.7882376399
H        3.8875716981   -0.6650989994   -6.6429753896
21   
torsion grid (90,)
O       -0.6655802086    2.8226916421   -0.8042654650
C       -0.0413565118    2.2141318368   -1.9721444540
C        1.3485347935    1.7822177995   -1.5357856701
O        1.2609110726    0.9344815444   -0.3752226147
H        1.9326122571    2.6818954670   -1.2885151984
C        2.0888221952    1.0054700184   -2.6230339502
O        2.3995211988    1.8594923946   -3.7185165904
P        1.5719141731    1.6177463096   -5.1638614922
O        2.2548204187    0.1674199664   -5.6385355784
C        3.6067995827    0.2017005288   -6.0798824899
O        0.1386315709    1.2974732040   -4.8510477100
O        2.0369201192    2.7181188266   -6.0691573336
H       -1.5921320107    2.9866095255   -1.0325286519
H       -0.6178895252    1.3461030475   -2.3072609696
H        0.0209367310    2.9216250400   -2.8011631251
H        0.5552914214    1.3285534526    0.1661630174
H        1.4876199059    0.1455146157   -2.9353517314
H        3.0292441353    0.6331888634   -2.1965854872
H        4.2949936483    0.0455989802   -5.2357541089
H        3.8402416633    1.1544934283   -6.5665911772
H        3.7453332830   -0.6178914444   -6.7967104018
21   
torsion grid (105,)
O       -0.6843802161    2.7613473692   -0.7377523491
C       -0.0714325836    2.1470253917   -1.9086481205
C        1.3281752459    1.7314434636   -1.4879770026
O        1.2642125178    0.8935675705   -0.3186651339
H        1.9074537734    2.6385018978   -1.2569332369
C        2.0607689981    0.9513710331   -2.5780846251
O        2.3500232106    1.7978494289   -3.6851698770
P        1.5050294791    1.5361070650   -5.1172395318
O        2.1834298416    0.0816547430   -5.5833377921
C        3.5209792534    0.1039749898   -6.0684334633
O        0.0765487239    1.2161834056   -4.7826616580
O        1.9567247482    2.6280351949   -6.0394691040
H       -1.6149732535    2.9169723387   -0.9551257549
H       -0.6450744348    1.2708025942   -2.2270301882
H       -0.0272421010    2.8468014915   -2.7453052742
H        0.5629239604    1.2865411312    0.2290949549
H        1.4631522981    0.0833393885   -2.8747014244
H        3.0097551156    0.5910281952   -2.1605226024
H        4.2064756535   -0.2940902349   -5.3058826175
H        3.8286208838    1.1163603495   -6.3481649530
H        3.5768923436   -0.5425364145   -6.9546226566
21   
torsion grid (120,)
O       -0.6936581901    2.6824623830   -0.6844306523
C       -0.0916327581    2.0713614689   -1.8626880104
C        1.3209666474    1.6789442969   -1.4640826563
O        1.2893659980    0.8450067582   -0.2905647679
H        1.8901588496    2.5956069398   -1.2463354670
C        2.0471082647    0.9054793243   -2.5631031177
O        2.3081919139    1.7521402952   -3.6770342369
P        1.4474748842    1.4709094531   -5.0962265520
O        2.1215317696    0.0101188113   -5.5483057169
C        3.4579287485    0.0234410400   -6.0380036195
O        0.0229224468    1.1543203587   -4.7419229060
O        1.8896276176    2.5509177208   -6.0367226376
H       -1.6299264353    2.8236295678   -0.8868116136
H       -0.6574278625    1.1847673291   -2.1662711180
H       -0.0726013594    2.7666995872   -2.7039309271
H        0.5916492097    1.2297734066    0.2674871047
H        1.4571585997    0.0283068973   -2.8480633502
H        3.0070217360    0.5590586440   -2.1589385579
H        4.0879642969   -0.6042753197   -5.3919904140
H        3.8678727025    1.0370995789   -6.0755834131
H        3.4721973018   -0.3943033196   -7.0541496325
21   
torsion grid (135,)
O       -0.6923006196    2.7756093472   -0.8028393881
C       -0.0769494262    2.1515095170   -1.9672637891
C        1.3406481175    1.7899837112   -1.5572715335
O        1.3191814797    0.9787534773   -0.3677488302
H        1.8942612835    2.7198755284   -1.3560962461
C        2.0821984182    1.0070510558   -2.6390830264
O        2.3326713147    1.8363877000   -3.7684325796
P        1.4805343220    1.5140906810   -5.1841871295
O        2.1859190015    0.0588762261   -5.6065243302
C        3.5375670804    0.0971917625   -6.0510201981
O        0.0614901471    1.1761547561   -4.8273252546
O        1.9050798088    2.5844832504   -6.1432219488
H       -1.6300240732    2.8980660002   -1.0106078328
H       -0.6273519051    1.2500958181   -2.2550847101
H       -0.0665856195    2.8306027808   -2.8218404546
H        0.6135730901    1.3628127933    0.1807901321
H        1.5071928750    0.1153396388   -2.9089415649
H        3.0463811261    0.6838316858   -2.2258907231
H        4.0886721706   -0.7142512687   -5.5565622903
H        4.0212127094    1.0502391980   -5.8150296311
H        3.5795702907   -0.0488048788   -7.1389703000
21   
torsion grid (150,)
O       -0.6898140633    2.6390273864   -0.7125839446
C       -0.0868779100    2.0217000499   -1.8870085384
C        1.3379220116    1.6658721409   -1.4969670138
O        1.3365563519    0.8524374270   -0.3089164187
H        1.8899293183    2.5979932702   -1.3016357151
C        2.0675058240    0.8884021048   -2.5907386260
O        2.2931362822    1.7206045961   -3.7233278278
P        1.4203625810    1.3944478970   -5.1252209902
O        2.1519260421   -0.0395207954   -5.5767789119
C        3.5008127889    0.0492193482   -6.0216508846
O        0.0165512272    1.0219509243   -4.7435444535
O        1.8022992240    2.4818007527   -6.0829830543
H       -1.6316804138    2.7532864391   -0.9057531380
H       -0.6364966641    1.1187577007   -2.1712513760
H       -0.0907904439    2.7043980121   -2.7388360696
H        0.6362476260    1.2317853659    0.2496312560
H        1.4940663611   -0.0067513420   -2.8520544397
H        3.0406881259    0.5717362307   -2.1938197867
H        3.9993412950   -0.8952726892   -5.7676988698
H        4.0386496514    0.8690058942   -5.5319662638
H        3.5423387910    0.2101637269   -7.1067971267
21   
torsion grid (165,)
O       -0.6852384784    2.5647613636   -0.6211064748
C       -0.0990878029    1.9369505175   -1.7983974175
C        1.3296849445    1.5799622733   -1.4240266573
O        1.3415168160    0.7759901381   -0.2296736377
H        1.8868977763    2.5119502336   -1.2433593755
C        2.0423376163    0.7917358249   -2.5212868828
O        2.2543849403    1.6145415164   -3.6633675728
P        1.3617122732    1.2812385577   -5.0503215182
O        2.0974942022   -0.1474408261   -5.5133887924
C        3.4357147496   -0.0363766812   -5.9837431278
O       -0.0330487135    0.9000007545   -4.6450455778
O        1.7198138721    2.3687501490   -6.0171959310
H       -1.6292165189    2.6801240387   -0.8029598756
H       -0.6547277691    1.0335376160   -2.0690323452
H       -0.1118527256    2.6135748164   -2.6550107168
H        0.6497494051    1.1618561871    0.3350147975
H        1.4627781068   -0.1036456449   -2.7677068035
H        3.0201323032    0.4755625744   -2.1354328264
H        3.8662961216   -1.0455064270   -5.9877858495
H        4.0417196448    0.6005635634   -5.3264718842
H        3.4635857597    0.3866674019   -6.9955112236
21   
torsion grid (180,)
O       -0.7000351162    2.5583256074   -0.5523630626
C       -0.1258566212    1.9187889518   -1.7292545997
C        1.3075596704    1.5679007395   -1.3668978826
O        1.3339731777    0.7777188715   -0.1636265587
H        1.8654722336    2.5026192304   -1.2032194506
C        2.0089677502    0.7680824684   -2.4630770150
O        2.2051743696    1.5773378307   -3.6175230634
P        1.2932254337    1.2289665640   -4.9881663725
O        2.0331490496   -0.1959891632   -5.4561863214
C        3.3594436297   -0.0767235269   -5.9562007519
O       -0.0916847512    0.8386687071   -4.5587429953
O        1.6253361854    2.3139333162   -5.9671943203
H       -1.6463053837    2.6694606482   -0.7246757363
H       -0.6830014768    1.0118616873   -1.9844478475
H       -0.1489741675    2.5866245029   -2.5925587936
H        0.6478740157    1.1690045146    0.4042440615
H        1.4285850999   -0.1315552381   -2.6913456378
H        2.9922286875    0.4591690588   -2.0852703171
H        3.7020589420   -1.0854485962   -6.2171426796
H        4.0346888275    0.3447422759   -5.1983266860
H        3.3891379748    0.5673944394   -6.8429468870
