26   
torsion grid (-165,)
C        5.9676899594   -1.0057912653    0.5943525812
C        5.7097754481    0.1756643916   -0.0670675122
C        3.8212355938   -0.8020247803    0.5574210391
C        0.4019613372   -1.2902249581   -0.8782066239
C        1.9011749868   -1.7139442154    1.9811620855
C        1.6490622844   -0.2310424745    1.8087950658
C        2.3609329320   -1.0204209567    0.7210733514
C        0.0612825681   -1.9072658853   -2.2278304275
C        3.5785956081    1.3866195296   -0.6976372570
N        4.7879671303   -1.6071126183    0.9753418265
N        4.3343293789    0.3040878477   -0.0829829296
N        1.7380503964   -1.3100460526   -0.5642120179
O       -0.4724500595   -0.8173418570   -0.1535040746
H        6.9288338661   -1.4502262017    0.8185196732
H        6.3572668565    0.9196155450   -0.5104391940
H        2.6733919610   -2.0513666608    2.6634110755
H        1.0375096923   -2.3630614626    1.8809260208
H        0.6313423858    0.0806232491    1.6170320980
H        2.2699715499    0.4582355605    2.3744684436
H        0.9250346530   -2.0233744034   -2.8889864721
H       -0.6885020390   -1.2823475944   -2.7170478108
H       -0.3860913444   -2.8924444388   -2.0608191628
H        2.6029481817    1.4652402398   -0.2179526677
H        3.4285652908    1.2051786131   -1.7666486357
H        4.1163694245    2.3282897308   -0.5650944473
H        2.3230244387   -1.8764683537   -1.1669548202
26   
torsion grid (-150,)
C        5.9826315796   -0.9046535356    0.6314568309
C        5.6883062630    0.2442054878   -0.0709943776
C        3.8311176766   -0.7753829197    0.5770372732
C        0.4621812381   -1.0999863329   -0.9465633071
C        1.9478291018   -1.7860340639    1.9799049880
C        1.6286481305   -0.3160858562    1.8448649963
C        2.3771362059   -1.0352957312    0.7363575557
C        0.0497399326   -1.8435706289   -2.2099694107
C        3.5169646826    1.3547555366   -0.7548191515
N        4.8215258927   -1.5327387298    1.0279444914
N        4.3093599299    0.3253260576   -0.0962802639
N        1.7529220435   -1.3422292400   -0.5416398369
O       -0.3169153838   -0.3398526017   -0.3734206512
H        6.9570873095   -1.3084621299    0.8743295753
H        6.3127575232    0.9943265564   -0.5364797188
H        2.7347722258   -2.1031255102    2.6549673705
H        1.1235313373   -2.4811822194    1.8536910425
H        0.6047322970   -0.0292223457    1.6466026000
H        2.2177777856    0.3837715003    2.4305969792
H        0.8901657272   -2.2663996302   -2.7681377380
H       -0.5040256297   -1.1569492433   -2.8534563288
H       -0.6289119172   -2.6562277912   -1.9316439099
H        2.5321275277    1.4089771503   -0.2903008393
H        3.3885474919    1.1310517128   -1.8185732605
H        4.0132901012    2.3221385961   -0.6476144210
H        2.2325236155   -2.0844694735   -1.0381457633
26   
torsion grid (-135,)
C        5.9767879815   -0.8447139081    0.6954345198
C        5.6471294390    0.2652575807   -0.0524526854
C        3.8235431028   -0.8074891965    0.6021431281
C        0.5437789776   -0.9930386396   -1.0003037717
C        1.9781736789   -1.9123720961    1.9793649838
C        1.5876613076   -0.4608318892    1.8655911108
C        2.3781088389   -1.1171519314    0.7498694237
C       -0.0026230732   -1.7864024559   -2.1787196760
C        3.4420538009    1.2601464302   -0.8077173089
N        4.8358739560   -1.5068263030    1.0961564446
N        4.2665725445    0.2886376988   -0.1006392765
N        1.7492359220   -1.4432280342   -0.5177749449
O       -0.0569347688   -0.0177465716   -0.5509902977
H        6.9628547801   -1.1988756998    0.9673136208
H        6.2480244815    1.0230919416   -0.5361093265
H        2.7780650019   -2.1988592029    2.6527937751
H        1.1954213526   -2.6507265761    1.8342555172
H        0.5558482292   -0.2086441918    1.6588714889
H        2.1336081231    0.2596989657    2.4671465030
H        0.7455059131   -2.4165649617   -2.6685466821
H       -0.4226169864   -1.0888742729   -2.9059042411
H       -0.8169864405   -2.4261304484   -1.8232578177
H        2.4429982471    1.2831322901   -0.3711610063
H        3.3519587508    0.9988186571   -1.8669394597
H        3.8911709079    2.2522504105   -0.7194775276
H        2.1004279024   -2.2999823326   -0.9301463726
26   
torsion grid (-120,)
C        6.0952336743   -0.8002704309    0.6612744375
C        5.7394549976    0.2964659602   -0.0938569286
C        3.9401073960   -0.7982769621    0.5892404436
C        0.7580779730   -0.9275013597   -1.0483082518
C        2.1464480896   -1.9127520295    2.0231063963
C        1.7004228328   -0.4826146912    1.8651481895
C        2.5046884352   -1.1446971134    0.7635608627
C        0.1301619302   -1.7053703486   -2.1949358936
C        3.5200518495    1.2574834464   -0.8365247479
N        4.9696271791   -1.4760622577    1.0799261562
N        4.3585278907    0.2970319999   -0.1294559073
N        1.8411030756   -1.5342955427   -0.4641984987
O        0.3142401654    0.1655280656   -0.6957066968
H        7.0896727761   -1.1359199421    0.9262505753
H        6.3223975233    1.0595145529   -0.5911836935
H        2.9651145407   -2.1445082317    2.6947770916
H        1.3928516549   -2.6865928792    1.9130228465
H        0.6586365314   -0.2739429186    1.6571713537
H        2.2179447780    0.2804824271    2.4380596320
H        0.7489398922   -2.5306657392   -2.5589238446
H       -0.0731909922   -1.0151860394   -3.0163562623
H       -0.8293810619   -2.1104081369   -1.8584145312
H        2.5012541545    1.2177299239   -0.4504140092
H        3.4932686509    1.0336550384   -1.9080201480
H        3.9178478477    2.2651881213   -0.6922975784
H        2.1124068604   -2.4422518268   -0.8218805359
26   
torsion grid (-105,)
C        6.0366085600   -1.0262710901    0.4425270779
C        5.7060414573    0.1920910630   -0.1112316262
C        3.8918386025   -0.8576435066    0.5999934939
C        0.8411422159   -1.0450146528   -1.0631201018
C        2.1230420788   -1.7633252335    2.2083581190
C        1.6737720608   -0.3649550276    1.8710843619
C        2.4584743469   -1.1658292021    0.8547094835
C        0.1951455585   -1.8782457647   -2.1586601978
C        3.5389089312    1.4466052008   -0.4246794070
N        4.9020762423   -1.6720183623    0.8804526689
N        4.3323865153    0.2929450902   -0.0118259888
N        1.7447667824   -1.7117629575   -0.2799273625
O        0.5488974918    0.1419823045   -0.9056059964
H        7.0188832060   -1.4687011487    0.5490203985
H        6.3030378872    0.9786199629   -0.5521750937
H        2.9515080134   -1.9042987622    2.8932634146
H        1.3694524282   -2.5448277014    2.2180804591
H        0.6281462083   -0.1869903979    1.6515311660
H        2.1913894749    0.4678910232    2.3364938350
H        0.6009352812   -2.8902057017   -2.2435874356
H        0.3209690717   -1.3591362931   -3.1120158225
H       -0.8783583178   -1.9431579858   -1.9594275021
H        2.4799800611    1.1884390287   -0.4258823326
H        3.8254801242    1.7452627431   -1.4366421063
H        3.7084196586    2.2878815738    0.2555783315
H        1.9712488341   -2.6682532163   -0.5222918745
26   
torsion grid (-90,)
C        6.0014018763   -0.9905609472    0.0341977121
C        5.6284216805    0.2721207763   -0.3749847614
C        3.8817797587   -0.8383319727    0.4079178247
C        0.9743246156   -1.2293796385   -1.2182138195
C        2.2360094116   -1.7016951653    2.1752300698
C        1.6997334154   -0.3572362371    1.7543292844
C        2.4821043795   -1.1949079396    0.7677138666
C        0.3805122820   -2.1275163462   -2.2907482643
C        3.4543633519    1.5508823960   -0.3723010762
N        4.9092597118   -1.6728813444    0.5187793973
N        4.2702968620    0.3616220896   -0.1415396107
N        1.7314366920   -1.8668325394   -0.2713275714
O        0.7620861464   -0.0156459974   -1.2085622621
H        6.9862314110   -1.4392680477    0.0067755003
H        6.1868812034    1.0964234727   -0.7967610387
H        3.0968586631   -1.7435452509    2.8330643791
H        1.5276245602   -2.5175886696    2.2810326924
H        0.6375550268   -0.2530832081    1.5662754520
H        2.1850866357    0.5334392730    2.1396881153
H        0.5864326664   -3.1908225173   -2.1404002449
H        0.7797372280   -1.8211992337   -3.2618005698
H       -0.7009956801   -1.9721439691   -2.3166149703
H        2.4138564793    1.2604280001   -0.5153816510
H        3.8046230701    2.0528638354   -1.2772446327
H        3.5377743012    2.2440144711    0.4719715775
H        1.9784657582   -2.8354239750   -0.4341600083
26   
torsion grid (-75,)
C        5.5602484842   -1.1048364643   -0.1575850363
C        5.2196076995    0.2061497616   -0.4150601718
C        3.4813794043   -0.9035336591    0.3866759476
C        0.7215135105   -1.2858504777   -1.2278820670
C        1.9203740705   -1.7476565027    2.2488123303
C        1.3760299951   -0.3995953700    1.8472502520
C        2.1031099206   -1.2514966212    0.8299175524
C        0.1491105014   -2.1909963439   -2.3051612047
C        3.1114491795    1.5624629101   -0.1532105294
N        4.4743661475   -1.7856687041    0.3407281678
N        3.8872596850    0.3278725959   -0.0726233385
N        1.2845631536   -1.9305477299   -0.1545460616
O        0.6585542443   -0.0595687272   -1.3153148901
H        6.5182247573   -1.5880743727   -0.3018501954
H        5.7849214167    1.0447605736   -0.7974299770
H        2.8100019102   -1.7898629309    2.8672125762
H        1.2122209352   -2.5573772977    2.3962836789
H        0.3061919463   -0.2911444853    1.7088891443
H        1.8840435202    0.4860658738    2.2134616046
H        0.0913530632   -3.2418913409   -2.0087212536
H        0.7779332523   -2.1104246631   -3.1973129658
H       -0.8483952088   -1.8341314674   -2.5706465803
H        2.0671095558    1.3212071408   -0.3458024851
H        3.4901298681    2.1622376157   -0.9836155598
H        3.2067187256    2.1405221144    0.7724565803
H        1.4871548440   -2.9171750436   -0.2695173885
26   
torsion grid (-60,)
C        5.5601597412   -1.0995417341   -0.2560853362
C        5.2152096124    0.2229826928   -0.4374880885
C        3.5053860523   -0.9177819830    0.3803312293
C        0.9274539295   -1.4095639814   -1.2642584758
C        2.0283340639   -1.7808170275    2.3035634070
C        1.4623704536   -0.4343884277    1.9265773344
C        2.1512080703   -1.2867660971    0.8795017216
C        0.4121031931   -2.3847176801   -2.3079355644
C        3.1225332831    1.5682303332   -0.0494816094
N        4.4927513407   -1.7989960374    0.2552207983
N        3.8987038937    0.3324018131   -0.0358139992
N        1.2942332532   -1.9784759184   -0.0658163362
O        0.9986530775   -0.2005060549   -1.4755381871
H        6.5089992194   -1.5782809642   -0.4624783711
H        5.7664730450    1.0758880896   -0.8084340530
H        2.9435111668   -1.8210724957    2.8834288149
H        1.3282363128   -2.5914505421    2.4832019724
H        0.3859995480   -0.3362032687    1.8358329468
H        1.9779921340    0.4528494256    2.2777750934
H       -0.0506078467   -3.2724713647   -1.8669215576
H        1.2518346914   -2.7085152940   -2.9327299908
H       -0.3090933720   -1.8729559029   -2.9465731290
H        2.0792116904    1.3335312547   -0.2512345857
H        3.4953843967    2.2073991176   -0.8523735948
H        3.2221276198    2.1010838599    0.9023399094
H        1.4265061296   -2.9843897677   -0.0839146466
26   
torsion grid (-45,)
C        5.4562221455   -1.1073014405   -0.3304288499
C        5.1299198724    0.2261574068   -0.4589255124
C        3.4132009427   -0.9169875504    0.3395533891
C        0.9881215302   -1.4329592340   -1.3661065995
C        1.9577912756   -1.8123106282    2.2665720414
C        1.4341496605   -0.4316321658    1.9532457756
C        2.0648455346   -1.2759426980    0.8594536525
C        0.4384647803   -2.4414507848   -2.3594280366
C        3.0560095110    1.5812280897   -0.0158085236
N        4.3839017951   -1.8086545217    0.1678573926
N        3.8226896193    0.3413500039   -0.0316097392
N        1.1503654480   -1.9070741750   -0.0817722939
O        1.2542054106   -0.2770407114   -1.6857420493
H        6.3952547158   -1.5922062942   -0.5652707903
H        5.6879057817    1.0826103547   -0.8111182885
H        2.8844453643   -1.9069794046    2.8213375158
H        1.2326509327   -2.6019744163    2.4427058397
H        0.3599704429   -0.2914849527    1.8940937384
H        1.9929224722    0.4201071995    2.3263504233
H       -0.1716911598   -3.2159414959   -1.8854076226
H        1.2787445802   -2.9271190666   -2.8676841260
H       -0.1540041047   -1.9152497882   -3.1091318967
H        2.0114299212    1.3585114354   -0.2222844753
H        3.4291046547    2.2351780213   -0.8063142538
H        3.1583271154    2.0929426696    0.9472244928
H        1.1346814187   -2.9191112554   -0.0082296740
26   
torsion grid (-30,)
C        5.4715206216   -1.0589876406   -0.3306045632
C        5.1384586017    0.2750687908   -0.4342941812
C        3.4272639382   -0.8923227911    0.3366926200
C        1.0968345428   -1.4451286271   -1.4116687309
C        2.0081054289   -1.8642089211    2.2452481101
C        1.5269250990   -0.4479678610    2.0335300655
C        2.0850070752   -1.2529645323    0.8689580403
C        0.4518345642   -2.4686924254   -2.3306993869
C        3.0393796462    1.5974929174   -0.0032740459
N        4.4028694802   -1.7752969842    0.1550201567
N        3.8311266673    0.3750290906   -0.0057392391
N        1.1096730223   -1.7908492061   -0.0760267999
O        1.5527496772   -0.3853090194   -1.8317871118
H        6.4134441452   -1.5344260325   -0.5728508623
H        5.6916973628    1.1402281484   -0.7724155109
H        2.9499149148   -2.0282335943    2.7564306765
H        1.2584466548   -2.6341419771    2.4090719182
H        0.4569188195   -0.2669456930    2.0265359039
H        2.1318321197    0.3592475445    2.4339261918
H       -0.3050062824   -3.0768894890   -1.8261424526
H        1.2310249246   -3.1362781002   -2.7147107949
H       -0.0000043763   -1.9503494829   -3.1774278779
H        2.0034947396    1.3547190393   -0.2310843377
H        3.4122178955    2.2612750622   -0.7854121773
H        3.1076106074    2.1093716693    0.9626012554
H        0.9029608300   -2.7702600085    0.0884872722
26   
torsion grid (-15,)
C        5.5038081045   -0.9999128738   -0.2261108287
C        5.1299497179    0.3184779488   -0.3806438354
C        3.4281696038   -0.8900660779    0.3435355799
C        1.1634424594   -1.4913481871   -1.4826716758
C        2.0090671820   -1.9653026339    2.1799532622
C        1.5666331493   -0.5221757889    2.0795195181
C        2.0799055105   -1.2610473703    0.8501427424
C        0.3482665723   -2.4670198603   -2.3174989502
C        2.9609278705    1.5660714648   -0.0708818110
N        4.4394075367   -1.7421752216    0.2304566277
N        3.8039114485    0.3820087740   -0.0086625516
N        1.0699536741   -1.6840322936   -0.1206591670
O        1.8280708908   -0.5958244876   -1.9953941584
H        6.4712112939   -1.4476521832   -0.4143761838
H        5.6666142202    1.1930876176   -0.7211849814
H        2.9541373098   -2.1959448229    2.6581478208
H        1.2392825603   -2.7229857877    2.3067185732
H        0.5020070356   -0.3112567701    2.1105705573
H        2.2026595049    0.2380885643    2.5226357978
H       -0.5272689555   -2.8559532779   -1.7884301889
H        0.9872642526   -3.3124921693   -2.5949874038
H        0.0287535634   -1.9675690416   -3.2330595743
H        1.9513588249    1.2762562885   -0.3571610040
H        3.3491592234    2.2392270525   -0.8372019624
H        2.9428157591    2.0893519641    0.8911362488
H        0.6215682340   -2.5566406089    0.1335470345
26   
torsion grid (0,)
C        4.5723722329    1.7473231528    0.9715892986
C        5.1742361618    1.1829009352   -0.1327457544
C        3.4480265606   -0.0321891142    0.5188269439
C        1.0953371354   -0.3141750449   -1.3461253389
C        3.0254179934   -2.5081872755    1.0684965105
C        2.1741980049   -1.6644959547    1.9959747081
C        2.4845044469   -1.1591725761    0.6103130210
C       -0.2979042903   -0.4630479246   -1.9438863453
C        4.6346660587   -0.8165496946   -1.5697586181
N        3.5042721449    0.9782380398    1.3748967780
N        4.4640332851    0.0315191388   -0.4019108114
N        1.3785805605   -1.2041272544   -0.3404085394
O        1.8785784902    0.5354017055   -1.7629483323
H        4.8526549591    2.6505347546    1.4981967827
H        6.0188964167    1.4843654398   -0.7367038863
H        4.0886821743   -2.5830071704    1.2761215229
H        2.5798474692   -3.3971182736    0.6292790074
H        1.1560055140   -1.9922357219    2.1906811924
H        2.6496804615   -1.1456173949    2.8201186566
H       -0.7977818322   -1.4002142879   -1.6805898371
H       -0.2220061280   -0.3878509433   -3.0304803037
H       -0.9143842843    0.3715649696   -1.5953958146
H        4.0942475310   -0.3956920954   -2.4213167455
H        4.2388472994   -1.8108870198   -1.3566334331
H        5.6984694606   -0.9053939551   -1.8040747204
H        0.6072455236   -1.7905382404   -0.0487554672
26   
torsion grid (15,)
C        4.3377502291    1.7477804942    0.7641418622
C        5.0812717329    1.1126058388   -0.2075676707
C        3.3584757004   -0.1356936048    0.3901214363
C        1.1072960800   -0.5539149702   -1.5245412510
C        3.0064078313   -2.6333274252    0.9125514367
C        2.1665167067   -1.8297108110    1.8806187646
C        2.4225120933   -1.2863036915    0.4994518823
C       -0.3356250844   -0.3889438953   -1.9784036752
C        4.8072236562   -1.0285200933   -1.4939040548
N        3.2730133110    0.9593373962    1.1350963783
N        4.4585300220   -0.0975048170   -0.4314181772
N        1.2660899105   -1.3243163162   -0.3947202773
O        2.0398268404   -0.0451166753   -2.1400239206
H        4.5172282527    2.7127397792    1.2207926270
H        5.9699142447    1.4023225352   -0.7511986639
H        4.0756274095   -2.6897034939    1.0936768366
H        2.5618518562   -3.5159201238    0.4623462726
H        1.1647891201   -2.1910586386    2.1016719292
H        2.6529216031   -1.3180583512    2.7030852214
H       -0.9867228831   -1.2064275983   -1.6538787284
H       -0.3569851531   -0.3165170615   -3.0667151787
H       -0.7267216250    0.5483829887   -1.5680815867
H        4.4401680649   -0.6559063686   -2.4523628634
H        4.3394999271   -1.9931702276   -1.3005214343
H        5.8925313382   -1.1587599237   -1.5235846467
H        0.3993529063   -1.5330586863    0.0863806177
26   
torsion grid (30,)
C        4.2379512754    2.0907452665    0.7888517974
C        5.0298888692    1.4927675091   -0.1685732529
C        3.4053423859    0.1297012074    0.4540005606
C        1.1115126010   -0.3771393064   -1.3567691406
C        3.1855667134   -2.4272117797    0.7754123367
C        2.4493924594   -1.7574524778    1.9118498035
C        2.5306445880   -1.0685293936    0.5730168546
C       -0.3202166505    0.0100661200   -1.6862575896
C        4.9709058459   -0.7260272122   -1.3577726511
N        3.2340524748    1.2332221001    1.1732113935
N        4.4930285820    0.2394406174   -0.3775793596
N        1.2716474725   -1.0579487810   -0.1675857289
O        2.0468128474   -0.1160343963   -2.1082330069
H        4.3388981944    3.0790676301    1.2189284098
H        5.8983617598    1.8353418280   -0.7138263119
H        4.2687330322   -2.4703157453    0.8273295689
H        2.7102826295   -3.2702936470    0.2844235485
H        1.4872247006   -2.1703330004    2.2040700691
H        3.0208300375   -1.3155477863    2.7201842600
H       -1.0602177024   -0.6385910446   -1.2080046575
H       -0.4549317696   -0.0173729249   -2.7684904822
H       -0.4911141662    1.0378523874   -1.3478684169
H        4.1244160402   -1.2801548798   -1.7581009315
H        5.6995896652   -1.4119367115   -0.9126368829
H        5.4444278649   -0.1884049098   -2.1812346595
H        0.4601815886   -1.0069255355    0.4388902705
26   
torsion grid (45,)
C        4.1919213196    2.0945050441    0.8099009005
C        4.9797744326    1.5165701753   -0.1629538408
C        3.3794792678    0.1254073153    0.4650233748
C        1.0721784197   -0.4879882423   -1.3681003381
C        3.1199655882   -2.4523698274    0.6744897546
C        2.4667210022   -1.8225897897    1.8808349335
C        2.4984481182   -1.0701694090    0.5724471265
C       -0.3163263619    0.0113790457   -1.7269091629
C        4.9641333407   -0.7014738923   -1.3519042610
N        3.2017712996    1.2219753434    1.1948436075
N        4.4542535981    0.2592458365   -0.3811428495
N        1.2042379371   -0.9876425084   -0.0900236589
O        2.0037905444   -0.4589775834   -2.1683199891
H        4.2860139120    3.0794505744    1.2492980857
H        5.8397297980    1.8738802432   -0.7122405107
H        4.2021788483   -2.5271101234    0.6641918179
H        2.5950019562   -3.2548853931    0.1671423260
H        1.5073553638   -2.2182336188    2.2025653166
H        3.0959513676   -1.4391834957    2.6761261667
H       -1.1060188631   -0.4637458828   -1.1375714248
H       -0.4943016016   -0.1656138188   -2.7886039471
H       -0.3560349837    1.0918787665   -1.5506333758
H        4.1347197502   -1.2811118492   -1.7511797910
H        5.7110726519   -1.3602740559   -0.8960234438
H        5.4280725161   -0.1559556309   -2.1758657228
H        0.4488463746   -0.7297544507    0.5366056207
26   
torsion grid (60,)
C        4.2944396991    2.1029349535    0.9164487792
C        5.0468435165    1.5416796604   -0.0934496527
C        3.4568041077    0.1470689834    0.5542129181
C        1.0965173434   -0.6292548928   -1.2949271210
C        3.1353962740   -2.4373985309    0.6992985083
C        2.5541258001   -1.8215683083    1.9480076145
C        2.5586293310   -1.0367518787    0.6554083017
C       -0.2666403049   -0.1016117455   -1.7063301597
C        4.9917465378   -0.6570879313   -1.3191142608
N        3.3104555673    1.2286693663    1.3129601151
N        4.5036218789    0.2937903026   -0.3255601179
N        1.2483814873   -0.8923834243    0.0465716904
O        1.9933696005   -0.8203141555   -2.1142978170
H        4.4097821750    3.0769979492    1.3746800852
H        5.8946769296    1.9037600757   -0.6582902325
H        4.2131138773   -2.5434639218    0.6383171637
H        2.5665397312   -3.2083677211    0.1909324295
H        1.5944492171   -2.1912152539    2.2970497224
H        3.2292090639   -1.4805346995    2.7248258162
H       -1.0472122464   -0.2973374992   -0.9657804092
H       -0.5471059994   -0.5514032147   -2.6604629816
H       -0.1907609443    0.9807184522   -1.8548646517
H        4.1547116842   -1.2395667655   -1.6986388759
H        5.7559334701   -1.3128927138   -0.8879224445
H        5.4312416632   -0.1017039334   -2.1501547960
H        0.5528293949   -0.4753358427    0.6559142216
26   
torsion grid (75,)
C        4.4132713896    2.0951540694    1.0374164301
C        5.1017105042    1.5775046295   -0.0391983521
C        3.5093573315    0.1832085642    0.6060262570
C        1.0872666855   -0.7385020516   -1.3057058628
C        3.1034615935   -2.3961682230    0.6591986922
C        2.5497524521   -1.8026335434    1.9301712679
C        2.5779269951   -0.9772350797    0.6611153827
C       -0.2580607230   -0.1984229329   -1.7595993074
C        4.9509603048   -0.5620557001   -1.3625809722
N        3.4268498306    1.2217311545    1.4312651208
N        4.5144161045    0.3587097787   -0.3165377735
N        1.2799498713   -0.7630044593    0.0534687427
O        1.9311643960   -1.1346672526   -2.1094850931
H        4.5745116911    3.0381624962    1.5441581835
H        5.9338172045    1.9504458196   -0.6201957229
H        4.1769164786   -2.5330342252    0.5844319955
H        2.5092410949   -3.1296766198    0.1259608082
H        1.5767906636   -2.1453803952    2.2689230064
H        3.2383903891   -1.5099025371    2.7148769778
H       -1.0121103186   -0.1928127919   -0.9675368278
H       -0.6144043440   -0.7989527214   -2.5985489410
H       -0.1201036685    0.8273873286   -2.1170325731
H        4.0951849155   -1.1299693761   -1.7247370016
H        5.7264742383   -1.2372393965   -0.9847629959
H        5.3620752013    0.0174866451   -2.1919141700
H        0.6290387398   -0.2267023535    0.6161898779
26   
torsion grid (90,)
C        4.7096839823    2.1000441589    1.3157371524
C        5.2820870125    1.6451942424    0.1468522377
C        3.6709276067    0.2790771917    0.8057205064
C        1.1156087343   -0.7373086353   -1.1133009819
C        3.1457485413   -2.2763958724    0.7910100308
C        2.6191877783   -1.6868586080    2.0748089836
C        2.6854290068   -0.8363592477    0.8215834294
C       -0.2481575896   -0.2390561966   -1.5621678621
C        4.9145005453   -0.3723481042   -1.3220932480
N        3.7093579639    1.2448208390    1.7169680240
N        4.6086788538    0.4846470174   -0.1796286751
N        1.4085079448   -0.5371855989    0.2095425336
O        1.8814045505   -1.3015148005   -1.8966679369
H        4.9617849633    2.9865484561    1.8836208610
H        6.0871507041    2.0252771341   -0.4668327958
H        4.2131991119   -2.4521083979    0.7070084774
H        2.5240386519   -2.9727179123    0.2405303414
H        1.6306529289   -1.9921380728    2.4038294972
H        3.3182638999   -1.4395239789    2.8658210465
H       -0.8291792232    0.2360355367   -0.7669731244
H       -0.8148022033   -1.0847171891   -1.9609128708
H       -0.1066419241    0.4753114794   -2.3775956746
H        4.0297748815   -0.9454948136   -1.5984447697
H        5.7414354380   -1.0503765832   -1.0839446644
H        5.2040411210    0.2536478031   -2.1692817052
H        0.7939457419    0.0615558829    0.7474623289
26   
torsion grid (105,)
C        4.8408920535    1.8978178813    1.6442341721
C        5.3549006484    1.5765394790    0.4061274012
C        3.7243786855    0.1847746430    0.9570499378
C        1.2179411397   -0.9832766800   -1.1552314283
C        3.1588542023   -2.3551518350    0.8735537380
C        2.5144349851   -1.7571861111    2.0976050965
C        2.7185816892   -0.9073665372    0.8574539659
C       -0.1321179968   -0.5199025812   -1.6790784647
C        4.8676524763   -0.2380695245   -1.2785944791
N        3.8268572656    1.0279384376    1.9773561212
N        4.6340867472    0.4827295914   -0.0308522803
N        1.5254090857   -0.5668377211    0.1122445349
O        1.9609588510   -1.6904877846   -1.8385784187
H        5.1426210356    2.6989540990    2.3068722251
H        6.1474275445    2.0092930454   -0.1889271548
H        4.2288879779   -2.5363632632    0.8923101755
H        2.5895800223   -3.0461264916    0.2639004528
H        1.4925665118   -2.0483391268    2.3206573338
H        3.1294468034   -1.5145200052    2.9567844553
H       -0.6555837557    0.1675475329   -1.0087512022
H       -0.7611618643   -1.3989922167   -1.8458786035
H        0.0168688571   -0.0348215750   -2.6469065886
H        4.0418619611   -0.9223694785   -1.4729300367
H        5.8039699547   -0.8031509224   -1.2218204056
H        4.9322057882    0.4733672453   -2.1062954405
H        0.8840988005    0.0651684910    0.5750575471
26   
torsion grid (120,)
C        5.1109651521    1.7346836228    1.6905063270
C        5.4571772944    1.5554934452    0.3685183270
C        3.7933661109    0.2067054082    0.9297838174
C        1.2587821002   -1.0911618108   -1.2415657271
C        3.0870885913   -2.2921779106    0.9468023206
C        2.3598041440   -1.5793878706    2.0568721358
C        2.7325988685   -0.8261225368    0.7926882581
C       -0.0567259872   -0.6030206627   -1.8291503435
C        4.5870074806    0.0572209690   -1.4750894342
N        4.0741552650    0.8928401571    2.0299899970
N        4.6156908646    0.5704160280   -0.1107959758
N        1.6540119011   -0.4459575009   -0.0971019862
O        1.9048091113   -1.9929374108   -1.7758923403
H        5.5483789388    2.4146129328    2.4103284284
H        6.2064729842    2.0191842407   -0.2583360380
H        4.1406212244   -2.5137039162    1.0859518230
H        2.5464791735   -2.9975907970    0.3285436085
H        1.3051324940   -1.8022261192    2.1868134732
H        2.8981212297   -1.3060062661    2.9571710668
H       -0.4032191967    0.3448120135   -1.4071862824
H       -0.8226431543   -1.3646711851   -1.6521727193
H        0.0600602905   -0.4976223950   -2.9097268426
H        4.0686563147   -0.9015392484   -1.5015671176
H        5.6097532293   -0.0793292520   -1.8354508068
H        4.0635666883    0.7523158099   -2.1397487643
H        1.0379689387    0.2707848155    0.2671876646
26   
torsion grid (135,)
C        5.0178275817    1.6415798351    1.7021052406
C        5.3915781855    1.4729257503    0.3860734370
C        3.7207306278    0.1154135973    0.9057041429
C        1.0978491555   -1.2560499636   -1.2383370635
C        3.0359855882   -2.3839239831    0.8968171673
C        2.2454115836   -1.6781932994    1.9689102148
C        2.6725028903   -0.9215096131    0.7243251348
C       -0.1891869808   -0.6831336103   -1.8145101215
C        4.5505425617   -0.0187341803   -1.4821626179
N        3.9764935152    0.7942307885    2.0155224561
N        4.5631040010    0.4877735392   -0.1158151052
N        1.6486236600   -0.5138387660   -0.2212992743
O        1.5936639764   -2.2908437914   -1.6825242868
H        5.4388594813    2.3175657641    2.4352131084
H        6.1519302816    1.9436720285   -0.2218546669
H        4.0847228651   -2.5874367488    1.0913049215
H        2.5337768302   -3.0974444411    0.2567986354
H        1.1879899689   -1.9133515184    2.0428689585
H        2.7332431048   -1.4005989945    2.8964659633
H       -0.3566581375    0.3666927609   -1.5565406445
H       -1.0333049189   -1.2718293401   -1.4407440287
H       -0.1651006069   -0.7911270689   -2.9005509944
H        4.1075257567   -1.0150088232   -1.5020671901
H        5.5746126768   -0.0778185781   -1.8583921999
H        3.9641554945    0.6349136123   -2.1358089077
H        1.1010898367    0.2771395194    0.0980622205
26   
torsion grid (150,)
C        4.9570392968    1.7009699967    1.6931602777
C        5.3933963114    1.5195766797    0.3982983143
C        3.7395048139    0.1232900826    0.8707147023
C        0.9857573305   -1.3140855215   -1.1607864766
C        3.1587740478   -2.3918900316    0.8106235290
C        2.3190374906   -1.7438108819    1.8858019073
C        2.7259022791   -0.9434074106    0.6659382403
C       -0.2116842143   -0.6105437370   -1.7855895339
C        4.6800574352   -0.0288871754   -1.4750683571
N        3.9270852656    0.8299572036    1.9766861564
N        4.6151236607    0.5028578256   -0.1206940503
N        1.7151509617   -0.5329535094   -0.2967379149
O        1.2565706052   -2.4802302349   -1.4436047766
H        5.3263732553    2.4015229196    2.4310160822
H        6.1671620020    2.0002063954   -0.1844377793
H        4.2134853597   -2.5467435981    1.0193224483
H        2.6891630347   -3.1170677186    0.1598398710
H        1.2744332624   -2.0353255638    1.9353199770
H        2.7772830791   -1.4655819084    2.8282045162
H       -0.1923783268    0.4774722423   -1.6739260937
H       -1.1251733742   -0.9933995596   -1.3192564454
H       -0.2509463005   -0.8654716515   -2.8465434593
H        4.2784284954   -1.0423720106   -1.4880982399
H        5.7204670662   -0.0555376722   -1.8074492253
H        4.0959491532    0.5862011302   -2.1668713718
H        1.3012945622    0.3629172826   -0.0651633686
26   
torsion grid (165,)
C        4.8954596169    1.7172097098    1.7796814926
C        5.4211300127    1.6009597161    0.5107706177
C        3.7542056479    0.1699050861    0.8030732815
C        0.9252649562   -1.1666951582   -1.2465320605
C        3.2566206181   -2.3357451233    0.5119004058
C        2.3518704600   -1.8136361007    1.6075698697
C        2.7695364698   -0.8954099422    0.4837029123
C       -0.1372579903   -0.3534697548   -1.9731483687
C        4.8555970204    0.1408135796   -1.4786558293
N        3.8588009738    0.8257760633    1.9503911662
N        4.6909736149    0.6047678418   -0.1080905997
N        1.8001734885   -0.4212207683   -0.4961813343
O        0.9720767714   -2.3915731815   -1.3510085069
H        5.2064723252    2.3841667908    2.5734096844
H        6.2281559728    2.1140525010    0.0060902846
H        4.3088395053   -2.4738992064    0.7451536081
H        2.8254777930   -3.0244567906   -0.2018997965
H        1.3227713728   -2.1568148934    1.5852489157
H        2.7626876308   -1.6035115885    2.5887488331
H        0.0642734619    0.7215105100   -1.9915165277
H       -1.1018896087   -0.5214087466   -1.4838475869
H       -0.2187307222   -0.7237169515   -2.9972993526
H        4.5156877226   -0.8922133150   -1.5555965236
H        5.9114223826    0.1888342683   -1.7544849313
H        4.2732563755    0.7524685411   -2.1749921306
H        1.5439730879    0.5491685840   -0.3584033216
26   
torsion grid (180,)
C        4.5319892700    1.7937975540    1.9048285268
C        5.1499476740    1.6167466122    0.6854009706
C        3.6101332892    0.0572084222    1.0191335744
C        0.7619472585   -1.6374139245   -0.7311455200
C        3.3983435252   -2.4958052591    0.7986658650
C        2.4641980070   -2.0489913007    1.9066041015
C        2.7497386750   -1.1240324205    0.7494083145
C       -0.3314580308   -0.9568777488   -1.5417602064
C        4.9315964512   -0.1223994985   -1.1379532314
N        3.5743058700    0.8230525258    2.1003037415
N        4.5519077860    0.5077267957    0.1195813071
N        1.7279705813   -0.7941880416   -0.2413866084
O        0.7664621403   -2.8553175773   -0.5569334923
H        4.7190356760    2.5625390351    2.6435094138
H        5.9361842035    2.1609739140    0.1804085500
H        4.4658023086   -2.5186688050    1.0011270127
H        3.0228176377   -3.2510185629    0.1201275344
H        1.4880278488   -2.5191000262    1.9243911288
H        2.8746054675   -1.7595661650    2.8676718702
H       -0.1385910776    0.0999494887   -1.7471191179
H       -1.2756006961   -1.0446453612   -0.9958322613
H       -0.4481377746   -1.4913041119   -2.4875252391
H        4.1036555663   -0.7292222783   -1.5037066657
H        5.8094024615   -0.7628846430   -1.0039010867
H        5.1603678189    0.6464202268   -1.8798765460
H        1.5127898126    0.1945842496   -0.2796589639
