18   
torsion grid (-165,)
C        2.3066476159   -1.1282532597   -0.6161046010
C        3.5861106177   -0.3724693758   -0.2820689057
C       -1.0350686348   -1.1913204462   -1.1508888413
C        1.0632031191    0.4742140347    0.8381660651
C       -0.0291008571   -1.5728945117   -0.0616173045
N        1.1414970942   -0.6886806152   -0.0346939428
O        2.3294726324   -2.1220991062   -1.3464346589
H        3.7267683440   -0.2718014496    0.7986568267
H        3.5890854032    0.6337887509   -0.7149591215
H        4.4186213659   -0.9336600511   -0.7059352689
H       -1.3945319989   -0.1640770935   -1.0232323376
H       -1.9034617838   -1.8587062507   -1.1208699093
H       -0.5685240819   -1.2743763705   -2.1361082156
H        1.2177839371    0.2120043401    1.8950975082
H        0.0730827331    0.9300342346    0.7428445380
H        1.7967248353    1.2294002235    0.5557388906
H       -0.4999425778   -1.5336895872    0.9280934296
H        0.3291017952   -2.5899756987   -0.2275137886
18   
torsion grid (-150,)
C        2.3453100861   -1.0781441308   -0.6818572560
C        3.6085357508   -0.4168039642   -0.1460210590
C       -1.1477488943   -1.1953197982   -1.0564596763
C        1.0450471707    0.5237186633    0.6971327077
C        0.0138054397   -1.5681926716   -0.1322669813
N        1.1337644869   -0.6188955716   -0.2040945643
O        2.4120445236   -2.0444063876   -1.4429116497
H        3.6054721905   -0.3891715738    0.9481503148
H        3.7239278689    0.6122512860   -0.5032204549
H        4.4593960470   -1.0009458172   -0.4958133392
H       -1.5430395029   -0.1992033105   -0.8286081774
H       -1.9676517203   -1.9138669423   -0.9477468066
H       -0.8158796187   -1.2025982815   -2.0983440237
H        1.2434609330    0.2517491788    1.7450479183
H        0.0368292522    0.9434157610    0.6417129732
H        1.7402886467    1.3102685663    0.4016759043
H       -0.3252387486   -1.6105226997    0.9114100015
H        0.4018386263   -2.5503001611   -0.4048981755
18   
torsion grid (-135,)
C        2.3913473763   -1.0279855661   -0.7553892712
C        3.6190389183   -0.4870146197   -0.0338765333
C       -1.2076425310   -1.1910691558   -0.9461150940
C        1.0500313321    0.5911463653    0.5424531241
C        0.0714772253   -1.5429248249   -0.1842096511
N        1.1462277162   -0.5506651342   -0.3631243761
O        2.4933143425   -1.9541760268   -1.5574829292
H        3.5025750736   -0.6093707363    1.0480773612
H        3.7982419127    0.5758566577   -0.2258373393
H        4.4840628066   -1.0537977298   -0.3772396649
H       -1.6185441743   -0.2252854974   -0.6327597605
H       -1.9755628085   -1.9520747012   -0.7687572136
H       -1.0055162731   -1.1449090489   -2.0198254817
H        1.2632548066    0.3258498636    1.5898043747
H        0.0354179789    0.9949801167    0.4971755419
H        1.7290348942    1.3884001527    0.2366612041
H       -0.1364131059   -1.6303557801    0.8920056499
H        0.4546170732   -2.5015885362   -0.5357220694
18   
torsion grid (-120,)
C        2.4622374319   -0.9850337283   -0.8200458150
C        3.6131687661   -0.5715485466    0.0880083457
C       -1.2027977390   -1.2326825775   -0.8585197552
C        1.0568991527    0.6446982312    0.3711817924
C        0.1631996542   -1.5486675036   -0.2479746159
N        1.1784050191   -0.5104207681   -0.5181290279
O        2.6250174591   -1.8448111632   -1.6794677274
H        3.3754222619   -0.8592277150    1.1182807140
H        3.8086897282    0.5049851762    0.0889798145
H        4.5112374269   -1.0937184193   -0.2411881934
H       -1.6258772422   -0.3016445307   -0.4674542033
H       -1.9104482036   -2.0373756651   -0.6307722714
H       -1.1179015797   -1.1408496247   -1.9449243581
H        1.2681247186    0.4047778459    1.4257239686
H        0.0368224946    1.0313969652    0.3127004238
H        1.7237548011    1.4474558109    0.0514930014
H        0.0735439005   -1.6757019807    0.8422469580
H        0.5388149832   -2.4828406449   -0.6676515996
18   
torsion grid (-105,)
C        2.4889953992   -0.9268667651   -0.8742359956
C        3.5365803028   -0.6608867940    0.1989322077
C       -1.2159493590   -1.2459380062   -0.7126095959
C        1.0288826061    0.7102710189    0.2127400975
C        0.2250967293   -1.5418991631   -0.2968530533
N        1.1690886744   -0.4615518083   -0.6554767084
O        2.7292803136   -1.6823628718   -1.8049817355
H        3.1819756798   -1.0954944809    1.1412204615
H        3.7204969431    0.4010322079    0.3837448033
H        4.4695241178   -1.1401758286   -0.0972495949
H       -1.6298492940   -0.3755669622   -0.1942045915
H       -1.8540072576   -2.1034125465   -0.4729498727
H       -1.2682811487   -1.0632358699   -1.7896761895
H        1.1911792617    0.4881489005    1.2806796913
H        0.0207496840    1.1160749817    0.1030040319
H        1.7243941900    1.4935522419   -0.0955152536
H        0.2746463486   -1.7252537590    0.7900811396
H        0.5651967743   -2.4460886420   -0.8049645926
18   
torsion grid (-90,)
C        2.1625938789   -0.7753040565   -0.7839583846
C        3.3384427763   -1.5649596370   -0.2447108255
C       -0.8328195549   -1.4065060727   -0.4118812720
C        0.8231862225    1.1246622525   -0.1686555030
C        0.2360057123   -1.1048062006    0.6472865639
N        1.3346951535   -0.2000319174    0.2282194834
O        2.0837021030   -0.4652213347   -1.9630628225
H        3.7507392091   -2.2238717850   -1.0110093495
H        3.0905250734   -2.1298758469    0.6579093361
H        4.0981920338   -0.8265814922    0.0344879711
H       -1.3984454814   -0.5140154477   -0.6924560564
H       -1.5434440642   -2.1365764316   -0.0092154835
H       -0.3898150851   -1.8249960167   -1.3202927173
H        0.2569669296    1.5327592566    0.6740898659
H        0.1863773726    1.1088083891   -1.0596632252
H        1.6693171878    1.7853402438   -0.3714478732
H       -0.2277741279   -0.6587473676    1.5339167101
H        0.6918911862   -2.0454017752    0.9781637751
18   
torsion grid (-75,)
C        2.2051143791   -0.6496229660   -0.7894578482
C        3.2492519789   -1.6224125602   -0.2682622277
C       -0.7716110451   -1.4534396727   -0.3990086765
C        0.7673994242    1.1792359914   -0.1916651176
C        0.2800690445   -1.0708279013    0.6503371012
N        1.3237389415   -0.1312366574    0.1834403914
O        2.2997135740   -0.1679720071   -1.9119981636
H        3.5592769885   -2.3112611680   -1.0566617003
H        2.9337588806   -2.1772595015    0.6177969044
H        4.1145236491   -1.0122557894    0.0116785230
H       -1.3615693758   -0.5919677912   -0.7232343736
H       -1.4626177751   -2.1891497853    0.0266434958
H       -0.3044522021   -1.8962221527   -1.2843693530
H        0.1789473806    1.5510378101    0.6522389271
H        0.1384281863    1.1490914645   -1.0881452572
H        1.5882168802    1.8723061950   -0.3841952019
H       -0.2035038861   -0.6152131755    1.5209744960
H        0.7760168634   -1.9771598441    1.0119548992
18   
torsion grid (-60,)
C        2.2729157490   -0.5257212180   -0.7431168843
C        3.1772341514   -1.6583294792   -0.2759244492
C       -0.6941105237   -1.5048370200   -0.4359750121
C        0.7218687365    1.2217457969   -0.1870737275
C        0.3164856919   -1.0651176611    0.6309577269
N        1.3095783710   -0.0779951169    0.1657912202
O        2.5200521747    0.0810083101   -1.7815634161
H        3.0954403253   -2.5193352454   -0.9468453850
H        2.9871465904   -1.9781024781    0.7496805498
H        4.2024127764   -1.2870613198   -0.3500915457
H       -1.3056520931   -0.6694999839   -0.7880604023
H       -1.3684212259   -2.2608031525   -0.0192541128
H       -0.1858379346   -1.9412623936   -1.3020151005
H        0.0788351698    1.5411538646    0.6379319015
H        0.1373166284    1.1945823633   -1.1138558242
H        1.5219481080    1.9508468460   -0.3212368142
H       -0.2057872275   -0.6284998204    1.4888314308
H        0.8509588713   -1.9418885055    1.0071948655
18   
torsion grid (-45,)
C        2.3567901412   -0.5017976296   -0.7000780445
C        3.0901633279   -1.7733070186   -0.2911142958
C       -0.6178401382   -1.5908681321   -0.4731187490
C        0.7399444776    1.2149837588   -0.2117949076
C        0.3497095274   -1.0865223819    0.6049545726
N        1.3188993461   -0.0895661005    0.1260039415
O        2.7627406861    0.1949599231   -1.6284378302
H        2.5535256973   -2.6718357937   -0.6158700485
H        3.2206639580   -1.8296643545    0.7927713495
H        4.0634972761   -1.7649489820   -0.7822457714
H       -1.2247748019   -0.7778338463   -0.8817918524
H       -1.2978999433   -2.3378705953   -0.0495821848
H       -0.0737912961   -2.0557952390   -1.3019567693
H        0.0647097526    1.5126502951    0.5951656461
H        0.1882475907    1.2040969325   -1.1597013723
H        1.5401140896    1.9499769104   -0.3025769251
H       -0.2104526655   -0.6328786031    1.4293480705
H        0.8981316699   -1.9290147353    1.0338815422
18   
torsion grid (-30,)
C        2.5361877087   -0.3932369724   -0.5439121080
C        3.1604682669   -1.7505473343   -0.2450563941
C       -0.4981860640   -1.5865749703   -0.4943745328
C        0.8253367933    1.2619841992   -0.1374876267
C        0.4436841662   -1.0794094358    0.6053529795
N        1.3904181435   -0.0571793598    0.1507216608
O        3.0863019270    0.4038972579   -1.3048782243
H        2.5626154165   -2.5727897374   -0.6523524250
H        3.2694418464   -1.9142088702    0.8311881862
H        4.1427905070   -1.7709129786   -0.7168736794
H       -1.1052027978   -0.7745224564   -0.9055604078
H       -1.1781695035   -2.3454465926   -0.0922851823
H        0.0672386429   -2.0355090877   -1.3176034704
H        0.1000706703    1.5101492977    0.6423896374
H        0.3287665085    1.3011964633   -1.1151334114
H        1.6247934343    2.0027813029   -0.1402360461
H       -0.1403680018   -0.6491060816    1.4262126056
H        1.0017008948   -1.9148473172    1.0325681878
18   
torsion grid (-15,)
C        2.6582421995   -0.4956789335   -0.3814000350
C        3.1129921597   -1.9295799441   -0.1380316791
C       -0.5148950884   -1.5647555545   -0.5525009981
C        0.9702743303    1.2350611497   -0.1631351739
C        0.4209608734   -1.0838826713    0.5640978108
N        1.4282317394   -0.1249213984    0.1129156639
O        3.3888872290    0.3065062299   -0.9668827806
H        2.4451131832   -2.6586751194   -0.6074641849
H        3.1624970477   -2.1589188173    0.9313343860
H        4.1080557488   -2.0339196616   -0.5699398373
H       -1.0634623525   -0.7290080780   -0.9974377321
H       -1.2475927063   -2.2763741814   -0.1565319155
H        0.0491653837   -2.0605164787   -1.3492250897
H        0.2458806882    1.5292529761    0.6020014356
H        0.4978721455    1.3204816759   -1.1501471360
H        1.8241879525    1.9112441760   -0.1390571928
H       -0.1654537797   -0.6037054286    1.3558422020
H        0.9191887847   -1.9365230032    1.0277098436
18   
torsion grid (0,)
C        2.6662343682   -0.5490945204   -0.3436037591
C        3.0524778352   -2.0133923749   -0.1707519179
C       -0.5508482613   -1.6783939210   -0.5728602393
C        0.9585430060    1.1934511518   -0.1818213314
C        0.3804638729   -1.1215422343    0.5114957440
N        1.3834311999   -0.1904873703   -0.0019235592
O        3.4854508514    0.2671036789   -0.7719681656
H        2.3415397725   -2.6957705001   -0.6450811227
H        3.1199933542   -2.2806212095    0.8893845929
H        4.0345067312   -2.1459823395   -0.6242200839
H       -1.0818925946   -0.8741122687   -1.0910515461
H       -1.2983152363   -2.3450756235   -0.1291398668
H        0.0137229674   -2.2446563154   -1.3201448175
H        0.6938333565    1.6425894946    0.7836792013
H        0.0858848634    1.2495360408   -0.8428441239
H        1.7796303582    1.7545016533   -0.6249394897
H       -0.2096305570   -0.5887684281    1.2663963676
H        0.8757401501   -1.9406489132    1.0353535491
18   
torsion grid (15,)
C        2.6531239446   -0.5153613835   -0.3615464067
C        3.0529719332   -1.9827066691   -0.2604151541
C       -0.6270252152   -1.7127710983   -0.5702334089
C        0.9116758495    1.1858060228   -0.2847167391
C        0.3604022515   -1.1246719047    0.4442015005
N        1.3284954615   -0.2076223189   -0.1596859916
O        3.4855880724    0.3444682071   -0.6580274696
H        2.3374402684   -2.6520515511   -0.7452843413
H        3.1495080914   -2.2905568027    0.7868892167
H        4.0286549150   -2.0871615038   -0.7350673052
H       -1.1793616604   -0.9228794465   -1.0887296806
H       -1.3539490441   -2.3604753365   -0.0681181671
H       -0.1009269055   -2.3050352976   -1.3253616899
H        0.9338905395    1.6991875215    0.6861249274
H       -0.1073132913    1.2287852826   -0.6808932910
H        1.5885405461    1.7018181937   -0.9640789669
H       -0.1856509710   -0.5733192582    1.2192801327
H        0.8891773195   -1.9284192998    0.9586806397
18   
torsion grid (30,)
C        2.4831114514   -0.4547885796    0.1556103534
C        3.0295007437   -0.9265353255   -1.1868244561
C       -0.7887142801   -0.5775853632   -1.3201458124
C        0.5960228021    0.1196488036    1.5598389055
C        0.2120391494   -1.3128524381   -0.4235960490
N        1.1123940568   -0.4048322082    0.2960693683
O        3.2415501274   -0.0492886185    1.0372760235
H        4.0131655488   -0.4731371273   -1.3138303152
H        2.3878468267   -0.6529363086   -2.0280143721
H        3.1608003521   -2.0145852303   -1.1937054849
H       -1.3984742104    0.1255437637   -0.7443325790
H       -1.4644023459   -1.2901583929   -1.8056871869
H       -0.2659386106   -0.0110092990   -2.0969533248
H        0.6410365577   -0.6315722657    2.3598135422
H       -0.4433698561    0.4276392856    1.4199811894
H        1.1899992601    0.9800736974    1.8663858450
H       -0.3218757904   -1.9235667447    0.3160954343
H        0.8019530186   -2.0075581485   -1.0231705403
18   
torsion grid (45,)
C        2.4922085209   -0.5076901766    0.1844298523
C        3.0870293023   -0.8850507903   -1.1674356306
C       -0.8775475707   -0.5933488379   -1.2548381478
C        0.6033957329    0.2092237202    1.4981559619
C        0.2196302811   -1.2730632490   -0.4322838317
N        1.1190489206   -0.3148920959    0.2309484768
O        3.2193962610   -0.2462333001    1.1407015926
H        4.0403804977   -0.3613980783   -1.2556746870
H        2.4426553138   -0.6169404258   -2.0074431425
H        3.2978089887   -1.9592144553   -1.2146528325
H       -1.5053127080    0.0536881026   -0.6347124350
H       -1.5268510142   -1.3442149986   -1.7179211779
H       -0.4381337270    0.0215042643   -2.0463158177
H        0.6324593413   -0.5450470132    2.2959959612
H       -0.4289546244    0.5355779321    1.3522586351
H        1.2070661988    1.0600345595    1.8136679360
H       -0.2260363364   -1.9222505911    0.3342626806
H        0.8087307415   -1.9240009981   -1.0807794386
18   
torsion grid (60,)
C        2.4420947141   -0.5528398144    0.2294601129
C        3.1169468386   -0.7787695057   -1.1164544970
C       -0.9565861722   -0.5856903842   -1.2264672059
C        0.5621992024    0.3046759435    1.4549325080
C        0.1693957742   -1.2309061137   -0.4170087558
N        1.0801696835   -0.2425186349    0.1949573619
O        3.1118679810   -0.4447389222    1.2523405795
H        3.7913885809    0.0693497636   -1.2658058164
H        2.4265104558   -0.8235185934   -1.9604248847
H        3.7305821135   -1.6833644297   -1.0896805855
H       -1.5786513088    0.0675858572   -0.6073259532
H       -1.6066341204   -1.3566581456   -1.6540960297
H       -0.5451087047    0.0146586374   -2.0435877716
H        0.5410201281   -0.4471567276    2.2549932577
H       -0.4503374901    0.6779988927    1.2858609289
H        1.1955911497    1.1298141367    1.7814085576
H       -0.2455123597   -1.8666169261    0.3780940427
H        0.7495649722   -1.8907694789   -1.0661257119
18   
torsion grid (75,)
C        2.4494023444   -0.9121094150    0.2915896080
C        3.2282257733   -0.9985629957   -1.0103169688
C       -0.9837334976   -0.5536095979   -1.1351616470
C        0.6602267142    0.2060354963    1.4382577214
C        0.1546574798   -1.2859554823   -0.4244149031
N        1.1509467016   -0.3697938240    0.1765350628
O        3.0044967501   -1.0713743402    1.3713025376
H        3.7884755292   -0.0609124722   -1.0887864454
H        2.5956481609   -1.0819374847   -1.8967383862
H        3.9453439379   -1.8213228548   -0.9760119660
H       -1.5680156089    0.0639763871   -0.4470803515
H       -1.6681719372   -1.2772553062   -1.5907245345
H       -0.5883481609    0.0946641144   -1.9229833639
H        0.4667345911   -0.5592696721    2.2018304429
H       -0.2618043290    0.7556044452    1.2376396662
H        1.4031507981    0.8999609562    1.8335232523
H       -0.2433104533   -1.9487951730    0.3584303520
H        0.6686706097   -1.9284378210   -1.1452368371
18   
torsion grid (90,)
C        2.4112565046   -0.9742852554    0.2609122420
C        3.3114172834   -0.9203176309   -0.9569467429
C       -1.0805214647   -0.5892573032   -1.0503184584
C        0.6786542998    0.2975611506    1.3286415673
C        0.1387320610   -1.2820089104   -0.4428396153
N        1.1482429923   -0.3283556341    0.0790708283
O        2.8210735940   -1.3361688962    1.3526027643
H        3.7756650908    0.0720926531   -0.9504260679
H        2.7577291027   -1.0107623084   -1.8952114930
H        4.0955273196   -1.6771250229   -0.8965947594
H       -1.6511918523   -0.0304077185   -0.3033922231
H       -1.7531593107   -1.3352052221   -1.4868141861
H       -0.7732482824    0.1052857435   -1.8380508608
H        0.3893986543   -0.4377868990    2.0918032558
H       -0.1773660086    0.9359127214    1.0999913548
H        1.4735129624    0.9219599694    1.7405544788
H       -0.1691394831   -1.9710156363    0.3592086870
H        0.6203187884   -1.8915281974   -1.2157398366
18   
torsion grid (105,)
C        2.3551514169   -1.3930484136   -0.1486320035
C        2.9874869307   -0.2211263233   -0.8898859248
C       -0.4929704352   -0.9175292374   -1.2718257681
C        1.0572221837    0.1868093188    1.2000604534
C       -0.0526679706   -1.6493124794    0.0033513322
N        1.1943083660   -1.1561327705    0.6267765972
O        2.7184665720   -2.5386276178   -0.3758002023
H        3.3390465622    0.5769443549   -0.2292808806
H        2.2342432033    0.2181986557   -1.5520395214
H        3.8259263106   -0.5924464055   -1.4793054314
H       -0.6322952064    0.1559442695   -1.1100740592
H       -1.4501978272   -1.3265643245   -1.6125901475
H        0.2301422435   -1.0556212109   -2.0817011887
H        0.2271093702    0.1729161468    1.9125493440
H        0.8615735734    0.9838674588    0.4672027594
H        1.9604588579    0.4457155294    1.7577489652
H       -0.8381529733   -1.5827643176    0.7636872779
H        0.0929506174   -2.7106520745   -0.2111809298
18   
torsion grid (120,)
C        2.3176245134   -1.3940611582   -0.1989148349
C        3.1053767387   -0.2235542413   -0.7725380578
C       -0.5955105480   -0.9733497389   -1.2221649264
C        1.0391144380    0.2321074331    1.1328430994
C       -0.0799125270   -1.6739409319    0.0409488968
N        1.1788556929   -1.1126501415    0.5702680065
O        2.5639134671   -2.5421244949   -0.5538842832
H        3.4973511790    0.4616080704   -0.0152941157
H        2.4402012386    0.3565512649   -1.4219280535
H        3.9340056070   -0.6204490718   -1.3588401973
H       -0.8021208948    0.0880191673   -1.0518574645
H       -1.5282238745   -1.4438819755   -1.5511575576
H        0.1272306007   -1.0599130022   -2.0399269343
H        0.1996381407    0.2269989362    1.8337944821
H        0.8535061028    1.0192144380    0.3874246752
H        1.9341504160    0.4975607617    1.6994689909
H       -0.8278394364   -1.6203138593    0.8391566848
H        0.0988903670   -2.7307446369   -0.1639612672
18   
torsion grid (135,)
C        2.3052747714   -1.3668659370   -0.2918013371
C        3.2337865738   -0.2259524936   -0.6855132250
C       -0.7082428414   -1.0172795756   -1.1924569866
C        1.0328717556    0.2838473115    1.0329638695
C       -0.0830388637   -1.6837854113    0.0384222978
N        1.1793929242   -1.0558171705    0.4654303174
O        2.4714003099   -2.4943648599   -0.7528425476
H        3.6816150020    0.2887453070    0.1701321243
H        2.6702451452    0.5197305880   -1.2568011359
H        4.0288372430   -0.6373225963   -1.3069570176
H       -0.9590747709    0.0325995864   -1.0095327334
H       -1.6321942581   -1.5366006598   -1.4683784459
H       -0.0261549223   -1.0683869973   -2.0470884853
H        0.2028261477    0.2700065705    1.7446026210
H        0.8264194423    1.0640956982    0.2862791719
H        1.9312420898    0.5649542577    1.5855815089
H       -0.7770361223   -1.6544655965    0.8853433882
H        0.1324345135   -2.7319167327   -0.1718160562
18   
torsion grid (150,)
C        2.2810105093   -1.3227979692   -0.3622156042
C        3.3341526414   -0.2418006102   -0.5639858952
C       -0.7985730368   -1.0944151499   -1.1800922742
C        1.0050918201    0.3381820369    0.9608476945
C       -0.0914084574   -1.6875876236    0.0434592711
N        1.1598982209   -0.9922472762    0.3793251840
O        2.3883777661   -2.4168100766   -0.9170741291
H        3.8094967711    0.0664147034    0.3730038871
H        2.8875232177    0.6500147265   -1.0157504439
H        4.0982351829   -0.6430880614   -1.2292402691
H       -1.0745945106   -0.0461256681   -1.0245687165
H       -1.7167605283   -1.6531902794   -1.3905096224
H       -0.1540953560   -1.1583604267   -2.0620189610
H        0.2106722317    0.3016810280    1.7113842571
H        0.7400261508    1.1089959348    0.2230234659
H        1.9201765180    0.6473917379    1.4679427478
H       -0.7443128566   -1.6486051917    0.9221964375
H        0.1572745098   -2.7332852431   -0.1388732508
18   
torsion grid (165,)
C        2.2599069327   -1.2532678303   -0.4504700331
C        3.4093494798   -0.2551854810   -0.4678800110
C       -0.9001330128   -1.1639785424   -1.1368421974
C        0.9836402142    0.3956258583    0.8991710322
C       -0.0832642138   -1.6885532239    0.0489256876
N        1.1437055359   -0.9185376322    0.2864678606
O        2.3233778497   -2.3031274603   -1.0934289647
H        3.8338755842   -0.1006230202    0.5296691922
H        3.0842702252    0.7198465599   -0.8451404514
H        4.1839157521   -0.6541394353   -1.1223887644
H       -1.2156892261   -0.1260676068   -0.9849514730
H       -1.8015956205   -1.7710339167   -1.2729702991
H       -0.3106452053   -1.2186113903   -2.0565988369
H        0.2064018616    0.3346173775    1.6658425202
H        0.6897787849    1.1719882586    0.1786577989
H        1.9046021448    0.7126095112    1.3904277852
H       -0.6785095593   -1.6625565308    0.9684210829
H        0.2124424618   -2.7223247501   -0.1309784718
18   
torsion grid (180,)
C        2.3576469743   -1.1364341118   -0.5102458274
C        3.6175012140   -0.2919380077   -0.3667713067
C       -0.8364242466   -1.1493356533   -1.1303390963
C        1.1209004058    0.4641176034    0.9768140081
C        0.0297596934   -1.5699517731    0.0612805573
N        1.2437165944   -0.7584087722    0.1979041170
O        2.3498012977   -2.1373104480   -1.2323942976
H        3.9302023945   -0.1919465182    0.6773740826
H        3.4769782798    0.7141678640   -0.7758678842
H        4.4073696138   -0.7897585902   -0.9288497508
H       -1.1463015311   -0.1013667153   -1.0522016678
H       -1.7416385195   -1.7643943937   -1.1789187602
H       -0.2803071742   -1.2809881382   -2.0620514577
H        0.8642879932    0.2336467514    2.0186166664
H        0.3341659893    1.1108714658    0.5678410517
H        2.0509837322    1.0288951318    0.9743328073
H       -0.5332550134   -1.4807464286    0.9972021265
H        0.3364902521   -2.6108514486   -0.0523464055
