16   
torsion grid (-165,)
C       -0.4876566135   -2.4053186256   -3.5892412827
C       -0.0736997249   -0.4389036076   -0.9954929805
C        0.7544555687   -2.9969880916   -2.9228556599
C        0.4360253954   -2.9699950245   -1.4210442197
C       -0.6268124934   -1.8469076157   -1.2916220711
N       -1.2852369687   -1.8904486868   -2.5817201423
O       -0.7440156033   -2.3745334107   -4.7814075261
O       -0.4422009233    0.5506621654   -1.5881684216
S        1.1169818869   -0.3784436694    0.3640914053
H        0.9644999358   -3.9926083123   -3.3169717195
H        1.6021340720   -2.3520034686   -3.1786956257
H       -0.0218003996   -3.9128091569   -1.1114191173
H        1.3108400260   -2.8013176177   -0.7916293516
H       -1.3269533801   -2.0649885341   -0.4756650580
H       -1.9821134021   -1.1969649993   -2.8305689167
H        1.1867518999    0.9678455187    0.3583904366
16   
torsion grid (-150,)
C       -0.4401690425   -2.3802798943   -3.5880987181
C       -0.1349920762   -0.4462342788   -0.9581088199
C        0.7757126262   -2.9886097846   -2.8885636754
C        0.4010426471   -2.9869857786   -1.3996703663
C       -0.6555247501   -1.8608165869   -1.2860918747
N       -1.2722256347   -1.8824510928   -2.6006195562
O       -0.6534996279   -2.3254000389   -4.7881091931
O       -0.6869918446    0.5498005594   -1.3729220770
S        1.3076706586   -0.3792857089    0.1237546231
H        0.9963875744   -3.9776984815   -3.2932377156
H        1.6349942879   -2.3430300232   -3.1004469651
H       -0.0769961332   -3.9314024629   -1.1272049102
H        1.2531350033   -2.8459665198   -0.7332100209
H       -1.3867155294   -2.0848554478   -0.4994150513
H       -1.9645998472   -1.1865210382   -2.8559080020
H        1.2839709641    0.9660134410    0.2138320720
16   
torsion grid (-135,)
C       -0.3891039390   -2.3479485079   -3.5840298382
C       -0.1890530036   -0.4634094419   -0.9047829385
C        0.7962237449   -2.9810922498   -2.8544731826
C        0.3679918435   -3.0048470931   -1.3798724762
C       -0.6851336501   -1.8771912347   -1.2762913851
N       -1.2497391646   -1.8610938103   -2.6169512313
O       -0.5613399125   -2.2695754127   -4.7896752208
O       -0.8705305281    0.5158129339   -1.1220967925
S        1.4341184146   -0.3604152802   -0.1280271047
H        1.0205456947   -3.9645088517   -3.2708585529
H        1.6687247028   -2.3410192331   -3.0231689632
H       -0.1259957498   -3.9512078071   -1.1444748929
H        1.1948650563   -2.8872775299   -0.6776672130
H       -1.4518458445   -2.1140866444   -0.5292146709
H       -1.9486370688   -1.1738624100   -2.8778490124
H        1.3701086799    0.9779994361    0.0254132245
16   
torsion grid (-120,)
C       -0.3372596068   -2.3121032477   -3.5796068335
C       -0.2314610590   -0.4866048117   -0.8411756362
C        0.8118295078   -2.9824160529   -2.8259671486
C        0.3406805410   -3.0204273884   -1.3634351535
C       -0.7101030127   -1.8911735892   -1.2664893732
N       -1.2153874056   -1.8242094296   -2.6309261239
O       -0.4728465823   -2.2110853179   -4.7884789685
O       -0.9952941885    0.4555877352   -0.8433667826
S        1.5041582464   -0.3272559921   -0.3832273484
H        1.0217834512   -3.9650732637   -3.2516405219
H        1.7041515900   -2.3630521004   -2.9618748107
H       -0.1640567868   -3.9674560580   -1.1550351833
H        1.1467135552   -2.9175008346   -0.6347369524
H       -1.5134604652   -2.1423450958   -0.5655612936
H       -1.9231859005   -1.1489768062   -2.8985568793
H        1.4149373915    1.0003691161   -0.1639412411
16   
torsion grid (-105,)
C       -0.8100511872   -2.4965736803   -3.5073471863
C       -0.1956583408   -0.3812142118   -1.0361348695
C        0.6283966816   -2.8821739142   -3.1626896500
C        0.6947988112   -2.8050961283   -1.6277732902
C       -0.4814200151   -1.8850687836   -1.2237322403
N       -1.3994023749   -2.0440277989   -2.3434498821
O       -1.3567321005   -2.5651491413   -4.5967066742
O       -1.0400657652    0.3620137440   -0.5825728803
S        1.4162050022    0.2042132309   -1.5945075223
H        0.8572507771   -3.8703035822   -3.5657759770
H        1.2926462052   -2.1630377094   -3.6513770402
H        0.5123759000   -3.7913495106   -1.1933342761
H        1.6540743919   -2.4548234671   -1.2421620822
H       -0.9508802253   -2.2049752580   -0.2883806037
H       -2.2921155811   -1.5642751186   -2.3773099548
H        1.1309881568    1.4989280760   -1.3492662441
16   
torsion grid (-90,)
C       -0.7732794301   -2.4677951404   -3.5268138516
C       -0.1798280896   -0.3993411060   -0.9741347674
C        0.6426402628   -2.8997109327   -3.1465757761
C        0.6811607722   -2.8149590915   -1.6100974550
C       -0.4980116521   -1.8869730521   -1.2233935291
N       -1.3765120208   -1.9962867848   -2.3786579159
O       -1.2955664627   -2.5196999363   -4.6288318291
O       -0.9037546766    0.2990237321   -0.2969530833
S        1.2789369956    0.2439237800   -1.8226146851
H        0.8423103178   -3.8995923255   -3.5363261021
H        1.3435777321   -2.2124150588   -3.6293945370
H        0.4894088497   -3.7983403534   -1.1737348159
H        1.6339741726   -2.4617947238   -1.2116786786
H       -1.0061802737   -2.2224311738   -0.3148787370
H       -2.2715580219   -1.5228620772   -2.4288526116
H        1.0530918604    1.5163409910   -1.4395819985
16   
torsion grid (-75,)
C       -0.7463446478   -2.4641379739   -3.5472374933
C       -0.1572356290   -0.4112359570   -0.9348399255
C        0.6534175675   -2.9148710079   -3.1304472578
C        0.6615975814   -2.8169493769   -1.5944895174
C       -0.5224069365   -1.8774789913   -1.2377747553
N       -1.3636855254   -1.9638448394   -2.4194061117
O       -1.2453684852   -2.5228358484   -4.6595608307
O       -0.6910934070    0.2181537272   -0.0470892054
S        1.0888227068    0.3112050418   -2.0285435974
H        0.8447445116   -3.9216340430   -3.5063603127
H        1.3773073122   -2.2452038883   -3.6044235978
H        0.4578428511   -3.7947048438   -1.1513748841
H        1.6067159130   -2.4582374678   -1.1834726935
H       -1.0596425068   -2.2162488809   -0.3477315299
H       -2.2587714251   -1.4941136463   -2.4930378337
H        1.0145104550    1.5292247425   -1.4567308270
16   
torsion grid (-60,)
C       -0.7255275145   -2.4745683513   -3.5672203807
C       -0.1413353019   -0.4211802877   -0.9068807128
C        0.6608618359   -2.9315453594   -3.1135901393
C        0.6430037869   -2.8070066206   -1.5803177788
C       -0.5518246683   -1.8619079815   -1.2590523680
N       -1.3543878290   -1.9338134472   -2.4646583997
O       -1.2047810470   -2.5531357627   -4.6867345963
O       -0.4338264846    0.1035760098    0.1452970712
S        0.8416443586    0.4094992189   -2.1797762278
H        0.8509557110   -3.9461092861   -3.4684428865
H        1.3999686291   -2.2752768916   -3.5827396757
H        0.4387014993   -3.7761833039   -1.1193749689
H        1.5791550131   -2.4311982159   -1.1640112431
H       -1.1139268512   -2.2072040768   -0.3869488221
H       -2.2441495087   -1.4598688996   -2.5669899342
H        1.0158787072    1.5230100023   -1.4410793106
16   
torsion grid (-45,)
C       -0.7008978689   -2.4733721559   -3.5821725163
C       -0.1130720208   -0.4356320378   -0.8844913403
C        0.6689664048   -2.9425941103   -3.0930399885
C        0.6196842492   -2.8060699750   -1.5620886666
C       -0.5760681882   -1.8462315630   -1.2739499725
N       -1.3353277198   -1.8881508512   -2.5053681858
O       -1.1622726166   -2.5713336710   -4.7073682798
O       -0.1529788710   -0.0223693539    0.2533233821
S        0.5811960328    0.5104072399   -2.2630712247
H        0.8541528991   -3.9623017165   -3.4352773701
H        1.4250432043   -2.2970266751   -3.5491883250
H        0.4013836575   -3.7691512936   -1.0951060648
H        1.5485618687   -2.4299477824   -1.1298044019
H       -1.1675470540   -2.1946636207   -0.4224231043
H       -2.2304057119   -1.4290271515   -2.6253861625
H        0.9999920705    1.5145514646   -1.4671081521
16   
torsion grid (-30,)
C       -0.6680605284   -2.4565553510   -3.5865221014
C       -0.0522367665   -0.4543112343   -0.8873475983
C        0.6841170219   -2.9438296869   -3.0667959661
C        0.5856375092   -2.8389172103   -1.5363906571
C       -0.5843992433   -1.8389537011   -1.2753542344
N       -1.3164944371   -1.8615358423   -2.5222990541
O       -1.1067155870   -2.5453141447   -4.7211658982
O        0.1481625107   -0.1301056185    0.2622859125
S        0.3285668397    0.5978230272   -2.3088079832
H        0.8772036474   -3.9561975584   -3.4255605370
H        1.4554672907   -2.2893843393   -3.4834225451
H        0.3138075875   -3.8029431016   -1.1001390066
H        1.5091403607   -2.5065144017   -1.0592193066
H       -1.1996506886   -2.1645963176   -0.4316977973
H       -2.2101265109   -1.4038137393   -2.6569756240
H        0.8959913298    1.5522359663   -1.5431079763
16   
torsion grid (-15,)
C       -0.6375444256   -2.4531822706   -3.5885451443
C        0.0338496080   -0.4647703267   -0.9169570676
C        0.7003245736   -2.9500439944   -3.0411358386
C        0.5446810067   -2.8849755118   -1.5137910644
C       -0.5753754951   -1.8249558262   -1.2822385456
N       -1.2919249378   -1.8381459851   -2.5385940283
O       -1.0634373144   -2.5502783258   -4.7272351981
O        0.4540672673   -0.2208043281    0.1926421940
S        0.1021664980    0.6983339336   -2.2979055584
H        0.9125569838   -3.9501670110   -3.4219234307
H        1.4815736332   -2.2779180582   -3.4103240313
H        0.1945824056   -3.8443336607   -1.1247115567
H        1.4602513427   -2.6209853680   -0.9825492462
H       -1.2131167902   -2.1034657694   -0.4382122327
H       -2.1888156872   -1.3900009355   -2.6827731502
H        0.7465716672    1.6327801846   -1.5682664740
16   
torsion grid (0,)
C       -0.6060725575   -2.4566023691   -3.5952528360
C        0.1193341585   -0.4662934775   -0.9650817636
C        0.7084958673   -2.9820350267   -3.0181921825
C        0.5101155056   -2.9236164798   -1.4955819517
C       -0.5553069778   -1.8065346644   -1.2987863960
N       -1.2639786194   -1.8191764503   -2.5605514460
O       -1.0145848196   -2.5537673563   -4.7403394281
O        0.7441310238   -0.2963199388    0.0587063805
S       -0.1176720760    0.8077350320   -2.2219102670
H        0.9140606731   -3.9820414886   -3.4025879346
H        1.5121131374   -2.3201613335   -3.3586239550
H        0.0951843687   -3.8666055836   -1.1303663654
H        1.4179687462   -2.7101470930   -0.9303980412
H       -1.2125509494   -2.0290975465   -0.4523941821
H       -2.1577786749   -1.3689917701   -2.7166372374
H        0.5669515298    1.7307422927   -1.5145227672
16   
torsion grid (15,)
C       -0.5786880111   -2.4739955908   -3.6067352810
C        0.1928672455   -0.4573920225   -1.0245992981
C        0.7100529421   -3.0293959586   -2.9998973705
C        0.4832966048   -2.9467654879   -1.4820998118
C       -0.5316689941   -1.7826858794   -1.3255537187
N       -1.2326328414   -1.8003282253   -2.5931739757
O       -0.9752057112   -2.5823390999   -4.7552446316
O        0.9997747114   -0.3474924257   -0.1280000087
S       -0.3233906843    0.9142267263   -2.0783604430
H        0.8948635446   -4.0386834128   -3.3703079778
H        1.5401426688   -2.3947846207   -3.3298346122
H        0.0197478505   -3.8672896001   -1.1177469055
H        1.3866157038   -2.7632589490   -0.9000746999
H       -1.2082016085   -1.9480520164   -0.4802102721
H       -2.1188750626   -1.3412503894   -2.7652511105
H        0.4017119775    1.8165736988   -1.3854302560
16   
torsion grid (30,)
C       -0.5526523168   -2.4968645499   -3.6193977083
C        0.2437430609   -0.4409684935   -1.0908542995
C        0.7082222122   -3.0801654335   -2.9810527065
C        0.4619862043   -2.9576057074   -1.4687518306
C       -0.5131714312   -1.7596735405   -1.3538143040
N       -1.2062036908   -1.7919418066   -2.6277262554
O       -0.9328128476   -2.6117992710   -4.7731962844
O        1.2126786282   -0.3671434143   -0.3684129803
S       -0.5177913806    0.9957778523   -1.8774517824
H        0.8670848920   -4.1021987359   -3.3279721358
H        1.5639115848   -2.4794723601   -3.3093009337
H       -0.0375680488   -3.8540736249   -1.0920514637
H        1.3634730869   -2.7893194488   -0.8798572110
H       -1.2063513862   -1.8752784656   -0.5127518715
H       -2.0725965386   -1.3060309739   -2.8254003910
H        0.2784583072    1.8738447203   -1.2345282150
16   
torsion grid (45,)
C       -0.5229756542   -2.5094974892   -3.6267512880
C        0.2564965729   -0.4278359294   -1.1518882270
C        0.7066633123   -3.1223247538   -2.9569671907
C        0.4443320979   -2.9639806616   -1.4507350194
C       -0.5115487527   -1.7514303644   -1.3695233957
N       -1.2007855861   -1.8087387209   -2.6478890314
O       -0.8660548964   -2.6015154019   -4.7944289169
O        1.3662400529   -0.3615734280   -0.6729031089
S       -0.7035831638    1.0333418852   -1.6117238004
H        0.8387227487   -4.1550767719   -3.2831508730
H        1.5855058250   -2.5549201370   -3.2822256398
H       -0.0739215902   -3.8432634068   -1.0592614873
H        1.3448253574   -2.7968378199   -0.8604334156
H       -1.2162730216   -1.8369186504   -0.5340980024
H       -2.0053040469   -1.2433147554   -2.8916944171
H        0.2180710807    1.9009731518   -1.1488465596
16   
torsion grid (60,)
C       -0.4890140265   -2.5085407632   -3.6286867175
C        0.2531108109   -0.4208967946   -1.1984310532
C        0.7061641084   -3.1554719359   -2.9302564347
C        0.4277735028   -2.9704167501   -1.4299187577
C       -0.5164009044   -1.7498362316   -1.3730094107
N       -1.1920823267   -1.8118549666   -2.6621448556
O       -0.7916611689   -2.5730250783   -4.8093107324
O        1.4480782351   -0.3378864715   -1.0259689774
S       -0.8303600250    1.0254148953   -1.2901860352
H        0.8058011951   -4.1966814947   -3.2414693811
H        1.6084674761   -2.6234284982   -3.2486741037
H       -0.1035334952   -3.8377202930   -1.0294569845
H        1.3267457041   -2.8047146357   -0.8367588246
H       -1.2376445546   -1.8200914774   -0.5506101239
H       -1.9270782853   -1.1723615607   -2.9416295059
H        0.1720440900    1.9145988028   -1.1460084752
16   
torsion grid (75,)
C       -0.4571278155   -2.5212544351   -3.6361907679
C        0.2502859841   -0.4091026902   -1.2553068290
C        0.7084963557   -3.1846242744   -2.9056500980
C        0.4116978901   -2.9652089405   -1.4134018872
C       -0.5240638010   -1.7362810819   -1.3882226033
N       -1.1717584336   -1.8036311471   -2.6928438473
O       -0.7327180834   -2.5891444579   -4.8231903588
O        1.4500171312   -0.2998146177   -1.3715405370
S       -0.8527930522    0.9974421958   -0.9777720545
H        0.7871306616   -4.2336321318   -3.1964004519
H        1.6270109608   -2.6783683346   -3.2176315246
H       -0.1304581807   -3.8194911814   -0.9996123820
H        1.3071943344   -2.7966647619   -0.8150772113
H       -1.2648055746   -1.7902675156   -0.5828814775
H       -1.8713301585   -1.1351590350   -2.9957637009
H        0.1236321175    1.9222891560   -1.0710346420
16   
torsion grid (90,)
C       -0.6577283430   -2.2574180284   -3.4848066316
C        0.3791501468   -0.6530644996   -0.8599326205
C        0.6279827278   -2.9943164344   -3.1172663582
C        0.5951968953   -3.1020373390   -1.5837971249
C       -0.3647088689   -1.9734648894   -1.1370769904
N       -1.2229616809   -1.8095841952   -2.3032051857
O       -1.1266637899   -2.0804988999   -4.5973768522
O        1.4336153748   -0.3475086936   -1.3704183981
S       -0.5420290332    0.4298328444    0.2538091307
H        0.6674327509   -3.9570416958   -3.6302962897
H        1.4683588828   -2.3883477792   -3.4671490699
H        0.1671694630   -4.0590007184   -1.2740367300
H        1.5780333404   -2.9971139958   -1.1231566903
H       -0.9531237650   -2.2491691470   -0.2558413543
H       -1.9780639121   -1.1334404216   -2.3350053430
H        0.3095390871    1.4684507562    0.1315362575
16   
torsion grid (105,)
C       -0.6436097853   -2.2989816881   -3.5132539723
C        0.3289754974   -0.6068140604   -0.9172064046
C        0.6440082554   -3.0066718766   -3.0978183657
C        0.5799540140   -3.0681168985   -1.5629428358
C       -0.4056577899   -1.9366319205   -1.1710789595
N       -1.2405204808   -1.8263279507   -2.3569920155
O       -1.0911951287   -2.1612127520   -4.6399332228
O        1.2559373946   -0.2131508672   -1.5899429340
S       -0.3773953842    0.3261056917    0.4551473744
H        0.7080141738   -3.9842565383   -3.5793724001
H        1.4813599639   -2.3976444934   -3.4486658863
H        0.1545416294   -4.0194106923   -1.2327309631
H        1.5514028081   -2.9416872701   -1.0828596576
H       -1.0053539394   -2.1971690271   -0.2932208082
H       -2.0008090140   -1.1591665339   -2.4277688995
H        0.4415470616    1.3874137407    0.3046197000
16   
torsion grid (120,)
C       -0.6313128467   -2.3413830420   -3.5375049483
C        0.2657382217   -0.5634750632   -0.9671596054
C        0.6639333751   -3.0036699609   -3.0723957238
C        0.5602891137   -3.0283835959   -1.5390472863
C       -0.4569387298   -1.9019595401   -1.2056991304
N       -1.2666007069   -1.8508589997   -2.4090851620
O       -1.0557108938   -2.2489792036   -4.6773988305
O        1.0408341007   -0.0732922703   -1.7583719832
S       -0.1794301914    0.2018037248    0.6031150280
H        0.7679951759   -3.9913438428   -3.5254435222
H        1.4923952257   -2.3798500160   -3.4183996177
H        0.1393853481   -3.9772628218   -1.1963580094
H        1.5154516239   -2.8771663364   -1.0330445310
H       -1.0663290804   -2.1502295467   -0.3311625527
H       -2.0293041957   -1.1925417875   -2.5222069769
H        0.6208037354    1.2748691652    0.4361426011
16   
torsion grid (135,)
C       -0.6162968051   -2.3766918151   -3.5572444440
C        0.1930213927   -0.5251318761   -1.0048889242
C        0.6837129862   -2.9927475332   -3.0423752751
C        0.5395462759   -2.9858125376   -1.5124566000
C       -0.5124068953   -1.8722606162   -1.2374791076
N       -1.2903939467   -1.8718161576   -2.4584220608
O       -1.0127653470   -2.3283403413   -4.7095513548
O        0.7969465737    0.0719678183   -1.8678829853
S        0.0390388875    0.0556032249    0.6960362100
H        0.8262753847   -3.9876046017   -3.4682646388
H        1.5047986649   -2.3560135807   -3.3833363567
H        0.1306351156   -3.9353468961   -1.1576865185
H        1.4760702181   -2.8013880770   -0.9824362411
H       -1.1344936720   -2.1120627296   -0.3693913593
H       -2.0588203571   -1.2284049921   -2.6101908577
H        0.8163307998    1.1423275743    0.5115502631
16   
torsion grid (150,)
C       -0.5942046816   -2.3985272462   -3.5687755961
C        0.1158511082   -0.4961405531   -1.0304256806
C        0.7053554817   -2.9746592621   -3.0075127919
C        0.5132406612   -2.9555895226   -1.4835782694
C       -0.5662985250   -1.8547337001   -1.2588567264
N       -1.3118980267   -1.8958593269   -2.4967919171
O       -0.9561778526   -2.3748870269   -4.7329120742
O        0.5273777550    0.2118555674   -1.9214741791
S        0.2829454074   -0.0980341642    0.7241589199
H        0.8899793366   -3.9690026237   -3.4177907751
H        1.5193799154   -2.3191152153   -3.3309700592
H        0.1075275340   -3.9076717530   -1.1320188932
H        1.4277605062   -2.7506494918   -0.9235406333
H       -1.2003774706   -2.0879186396   -0.3974604324
H       -2.0767162353   -1.2577146120   -2.6846556838
H        0.9974543618    1.0249244334    0.5085845412
16   
torsion grid (165,)
C       -0.5631802465   -2.4086011158   -3.5763909970
C        0.0411856018   -0.4717672868   -1.0321414915
C        0.7234406221   -2.9732504839   -2.9754432551
C        0.4888288257   -2.9460652162   -1.4581328235
C       -0.6018692797   -1.8478646206   -1.2726204359
N       -1.3161428651   -1.9070576732   -2.5278427108
O       -0.8882230431   -2.3908613930   -4.7514237071
O        0.2105662699    0.3586251572   -1.8953954199
S        0.5560734827   -0.2395692410    0.6877953676
H        0.9269991037   -3.9680487876   -3.3752073082
H        1.5428748873   -2.3150331633   -3.2813102292
H        0.0771065480   -3.8980247188   -1.1135654364
H        1.3860681025   -2.7347770553   -0.8741110454
H       -1.2525767500   -2.0785554544   -0.4224082772
H       -2.0581909014   -1.2517556992   -2.7465235740
H        1.1082389177    0.9688836151    0.4607010928
16   
torsion grid (180,)
C       -0.5275886380   -2.4126756177   -3.5846634866
C       -0.0175155086   -0.4490218774   -1.0163515077
C        0.7365436429   -2.9930262136   -2.9513535088
C        0.4666832630   -2.9557555479   -1.4402628599
C       -0.6114332941   -1.8441261189   -1.2857876489
N       -1.2994926115   -1.8976018350   -2.5570855473
O       -0.8204836569   -2.3913366880   -4.7683007719
O       -0.1359896719    0.4907343859   -1.7693358504
S        0.8538666242   -0.3385189015    0.5674080749
H        0.9373835572   -3.9916138815   -3.3429170726
H        1.5728884587   -2.3477097223   -3.2402812586
H        0.0351721521   -3.9016990289   -1.1037306889
H        1.3556004132   -2.7581823014   -0.8396290519
H       -1.2853063515   -2.0689613648   -0.4509577870
H       -2.0118487812   -1.2165309009   -2.7953398536
H        1.1327196781    0.9723024770    0.4245685686
