39
0 1 C18FH16N3O
C                    -3.491613663542    -4.058395191071     5.475548324492
C                     4.953161976174     0.055244698474    -0.656615455163
C                    -3.226196673617    -4.440130591922     4.176307520799
C                     3.698654273675     0.025935821778    -1.270482874559
C                    -3.439971651143    -2.694028008300     5.851918312936
C                    -2.312094885676    -2.758755027921     0.962774327713
C                     5.014078279573    -0.028365734737     0.735977479098
C                     2.731854722466    -0.160505110192     0.911245474570
C                    -2.896368773371    -3.458146882748     3.207868499215
C                     2.548326000855    -0.084486242662    -0.482484756768
C                    -2.833389366781    -2.072986104826     3.557459792419
C                    -2.619249891992    -3.773208299310     1.845647786213
C                    -3.120992222389    -1.743382602176     4.911645229941
C                    -2.263003264012    -1.418259156125     1.432034596730
C                     0.128888020713     0.862330656304    -0.496152393391
C                     0.226650700453    -1.241144998952    -0.585703227092
C                     1.177285814081    -0.119817542315    -1.102125213777
C                    -1.870635661103    -0.305193732695     0.482580929434
N                     3.926757057562    -0.134692777208     1.514991808300
N                    -2.519521345373    -1.078151888018     2.682076837336
N                    -0.427332082211    -0.253468671226     0.297628906339
O                    -2.684436327392    -5.088791275334     1.490604242621
F                    -3.075632284330    -0.446325247155     5.276749183739
H                    -3.743653323460    -4.804184959765     6.224022101166
H                     5.864619095169     0.140693636193    -1.241973409999
H                    -3.265315082896    -5.482854748325     3.880818046172
H                     3.614207777513     0.088665647229    -2.353865107793
H                    -3.646846718770    -2.382025781069     6.871164310571
H                    -2.110545229952    -2.973045482259    -0.084712534713
H                     5.973982953358    -0.009325314268     1.250254694673
H                     1.862960998725    -0.245080831429     1.562725444823
H                     0.506956461624     1.700350445873     0.098880709476
H                    -0.565184618878     1.240359324255    -1.264863420048
H                    -0.434050277948    -1.611108307698    -1.389392507533
H                     0.683303322426    -2.092186696653    -0.069741280614
H                     1.261407495979    -0.069651431616    -2.189642183730
H                    -2.395608812840    -0.429495289855    -0.485439015549
H                    -2.190564534317     0.639871785499     0.927472572024
H                    -2.471781887901    -5.175708267054     0.546993194450
