15   
torsion grid (-165,)
C        0.7291477163    2.8743623926    1.6585757096
C       -0.6004738982   -0.1664480953    0.4767115455
C        0.3340465323   -2.8108881576    1.8399534280
C       -0.8652562412    1.3405991274    0.2873678948
C        0.7225556607   -0.5816721836    1.1121347863
N        0.0005196148    2.1949526076    1.0276400401
O       -1.4332694379   -0.9511205137    0.0702743123
O        1.0333694646   -1.9372817365    0.9510167448
H        0.7375302391   -3.8105782835    1.6683990576
H       -0.7416683300   -2.8128362202    1.6387900169
H        0.5156016525   -2.5256362759    2.8867172144
H       -0.7569526731    1.5531281976   -0.7819477610
H       -1.9053331244    1.5399315419    0.5580774180
H        0.7050987267   -0.2734309121    2.1717075299
H        1.5264289964   -0.0034992033    0.6411349335
15   
torsion grid (-150,)
C        0.6833042037    2.9464693290    1.6177783144
C       -0.6731553741   -0.1251966540    0.6162569424
C        0.3728106124   -2.8575104786    1.7826770138
C       -0.8298472350    1.3552883732    0.2201717174
C        0.6728648030   -0.5661787192    1.1912851658
N       -0.0054883865    2.2443559121    0.9670562444
O       -1.5893883627   -0.8888729863    0.3871395298
O        0.9908402265   -1.9044802680    0.9138718895
H        0.7982608684   -3.8288317126    1.5228070364
H       -0.7119806755   -2.8826201607    1.6444109819
H        0.6075811402   -2.6326495307    2.8334344918
H       -0.5703981666    1.4304647288   -0.8426907834
H       -1.8801402015    1.6349910216    0.3293438812
H        0.6714650336   -0.3450101058    2.2722106566
H        1.4646164125    0.0493635367    0.7507997888
15   
torsion grid (-135,)
C       -1.0554223202   -0.8142430857   -2.8340066001
C       -1.0504632676   -0.8859151022    0.6557567131
C        1.2980293077   -1.8556442233    2.5281104160
C       -2.1138537728   -0.8268839530   -0.4563130813
C        0.2149502468   -1.7112635111    0.3978495552
N       -1.5609952201   -0.8281480311   -1.7685086981
O       -1.2859271388   -0.3492977530    1.7203097158
O        0.5671349971   -2.5219824260    1.4944065193
H        1.6149614319   -2.6334000753    3.2259631834
H        0.6785683633   -1.1201538427    3.0489243457
H        2.1878092308   -1.3595657534    2.1137668012
H       -2.7559448911   -1.7082488077   -0.3357516125
H       -2.7274836913    0.0640135849   -0.3060467781
H        1.0229306704   -1.0179626442    0.1117734869
H        0.0517820628   -2.3824935294   -0.4499551779
15   
torsion grid (-120,)
C       -1.2560476354   -0.9386868104   -2.8683395945
C       -0.9433345271   -0.7687848038    0.5939800890
C        1.2060477268   -1.9236643487    2.5466586391
C       -2.1062179059   -0.8689887055   -0.4096580951
C        0.3152510122   -1.6089515735    0.3396723486
N       -1.6680366089   -0.9191115679   -1.7632963339
O       -1.0833608751   -0.0918292655    1.5944292230
O        0.5591808643   -2.5022406371    1.4096020756
H        1.4573969698   -2.7561131035    3.2072468464
H        0.5533980446   -1.2180764267    3.0690038805
H        2.1290118953   -1.4079799110    2.2450802289
H       -2.6633432146   -1.7857264181   -0.1787850682
H       -2.7710044351   -0.0157604523   -0.2590855944
H        1.1603759570   -0.9229065943    0.1757383815
H        0.1967587412   -2.2223685348   -0.5559682379
15   
torsion grid (-105,)
C       -1.4507779941   -1.0862019274   -2.8586249097
C       -0.8365514678   -0.6634015488    0.5381039936
C        1.0922015719   -1.9821402178    2.5319335423
C       -2.0757359902   -0.9178892677   -0.3381158039
C        0.4265382556   -1.4920923234    0.2774025604
N       -1.7559402248   -1.0252330806   -1.7209408452
O       -0.9121833590    0.1205602439    1.4656818737
O        0.5648113960   -2.4726550102    1.2967683557
H        1.2493650055   -2.8600965191    3.1618155162
H        0.4017730693   -1.2905965690    3.0256860429
H        2.0518400184   -1.4725709491    2.3673286411
H       -2.5366409393   -1.8557998620   -0.0035607051
H       -2.7876278126   -0.1055836552   -0.1773540857
H        1.2904587226   -0.8134780924    0.2477038319
H        0.3645457577   -2.0340103745   -0.6675492196
15   
torsion grid (-90,)
C       -1.5938618044   -1.3356646005   -2.7911893822
C       -0.7426715625   -0.5451395998    0.4897631451
C        0.9731463311   -2.0513442836    2.4815701187
C       -2.0292043136   -0.9395117693   -0.2567368906
C        0.5253396250   -1.3608714457    0.2291119649
N       -1.8126204046   -1.1710791952   -1.6440299886
O       -0.7876920375    0.3213992800    1.3433028018
O        0.5568692122   -2.4326507814    1.1681405440
H        1.0281504073   -2.9751406375    3.0607557494
H        0.2644322502   -1.3620988733    2.9546419675
H        1.9633750493   -1.5767792861    2.4515690104
H       -2.4156009342   -1.8575876680    0.2026485365
H       -2.7656608973   -0.1452791896   -0.1178548371
H        1.3976204292   -0.7035074426    0.3366854633
H        0.5244546588   -1.8159336607   -0.7620994143
15   
torsion grid (-75,)
C       -1.6608924955   -1.7321378257   -2.6221394511
C       -0.6723922467   -0.4118870088    0.4603966784
C        0.8548937672   -2.1452799370    2.3827794386
C       -1.9782325736   -0.9323101662   -0.1675315654
C        0.6119465937   -1.1985395153    0.2002186304
N       -1.8206858586   -1.3827847789   -1.5073181958
O       -0.7167693891    0.5287769059    1.2310390230
O        0.5743839103   -2.3775765667    1.0006739163
H        0.8509276648   -3.1256583990    2.8627320933
H        0.1009318929   -1.5042203756    2.8564633661
H        1.8418795842   -1.6798936694    2.5069862958
H       -2.3328773070   -1.7665928106    0.4492499229
H       -2.7198924970   -0.1318403784   -0.1240050305
H        1.4690493788   -0.5627627701    0.4538520225
H        0.6838055848   -1.5284818574   -0.8371183558
15   
torsion grid (-60,)
C       -1.6213216506   -2.1585362770   -2.3400385926
C       -0.6298512228   -0.2791694300    0.4412371566
C        0.7432613051   -2.2458211018    2.2449612582
C       -1.9310339100   -0.9219401061   -0.0741353751
C        0.6764813430   -1.0343451081    0.1973778670
N       -1.7797527183   -1.6096744185   -1.3087383190
O       -0.6901455834    0.7517242987    1.0833642938
O        0.6180708219   -2.3086290121    0.8244273671
H        0.7284598318   -3.2773529972    2.6011932204
H       -0.0837259467   -1.6914918280    2.7100129759
H        1.6902344477   -1.7713750664    2.5358706075
H       -2.2767054226   -1.6298529615    0.6881958363
H       -2.6807115715   -0.1332807891   -0.1707193605
H        1.5022714002   -0.4238573023    0.5832907488
H        0.8205448853   -1.2175870536   -0.8700208958
15   
torsion grid (-45,)
C       -1.6274076796   -2.2987132371   -2.1942926817
C       -0.5997903167   -0.1924160236    0.3774374969
C        0.6606687586   -2.3019264844    2.1654567354
C       -1.8919953598   -0.9466803668    0.0106685364
C        0.7176655526   -0.9518560012    0.2175444570
N       -1.7691055705   -1.7016259227   -1.1876541518
O       -0.6608823562    0.9429684834    0.8063497832
O        0.6321840551   -2.2660883101    0.7405028285
H        0.6115685906   -3.3537771269    2.4522362025
H       -0.1926896843   -1.7686590823    2.6101818156
H        1.5884746778   -1.8599929179    2.5537991861
H       -2.1400288691   -1.6247157734    0.8352334772
H       -2.6945468671   -0.2121318218   -0.0865550325
H        1.5112357182   -0.3630093754    0.6947409962
H        0.9407253596   -1.0525651929   -0.8493708603
15   
torsion grid (-30,)
C       -1.6804864152   -2.3864862707   -2.0957958502
C       -0.5881671365   -0.1336775428    0.2880654281
C        0.6232817175   -2.3559940117    2.1157114844
C       -1.8730250166   -0.9549045422    0.0666482336
C        0.7414504124   -0.8894932256    0.2603362050
N       -1.7932565773   -1.7550022513   -1.1065245004
O       -0.6483059482    1.0642810968    0.4808784645
O        0.6355226085   -2.2299700623    0.6968247969
H        0.5355609843   -3.4213176080    2.3359661924
H       -0.2264557385   -1.8251783269    2.5714631069
H        1.5522210161   -1.9678959121    2.5557485712
H       -2.0366085866   -1.6062693396    0.9317807433
H       -2.7083033564   -0.2555010380   -0.0119973611
H        1.4736587813   -0.3118376931    0.8391162230
H        1.0789892641   -0.9219424258   -0.7819429490
15   
torsion grid (-15,)
C       -1.7601212513   -2.4947699867   -1.9886460572
C       -0.5816464799   -0.0937278528    0.1904213368
C        0.6113026418   -2.4131377666    2.0673102463
C       -1.8633495128   -0.9441585642    0.0970303663
C        0.7578385948   -0.8228795199    0.3144343094
N       -1.8282173846   -1.8110129827   -1.0304245130
O       -0.6412545865    1.1193673099    0.1703064903
O        0.6492502875   -2.1874151793    0.6616976176
H        0.5008798843   -3.4894477103    2.2105565599
H       -0.2357577564   -1.8999597263    2.5475350353
H        1.5400960492   -2.0755038667    2.5475994423
H       -1.9749064592   -1.5447043678    1.0054382955
H       -2.7107955332   -0.2599682473    0.0143629094
H        1.3886678228   -0.2549462466    1.0107881486
H        1.2340896924   -0.7789244460   -0.6721313989
15   
torsion grid (0,)
C       -0.0465207188   -0.6798200365    3.8380218811
C       -0.2629335514    0.1465658614    0.4946122303
C       -0.3357460994   -3.1123557882   -0.0544158542
C       -1.2817168524   -0.1843505785    1.6031753927
C        0.6764381486   -0.9600652605    0.0106524818
N       -0.6284211838   -0.4711354143    2.8338560512
O       -0.2227352445    1.2558205005    0.0014311825
O        0.5009820067   -2.2044584980    0.6542364084
H       -0.4101007869   -4.0134989558    0.5567868576
H        0.0972770174   -3.3706304036   -1.0307600145
H       -1.3459296751   -2.7068993105   -0.2162718243
H       -1.9321732131    0.6849207507    1.7241742598
H       -1.8863149590   -1.0485116346    1.3101342184
H        1.6974605807   -0.6190359387    0.2160747838
H        0.5728040065   -1.0288873302   -1.0808513133
15   
torsion grid (15,)
C        0.1004904923   -0.5485158588    3.8112120745
C       -0.3305870037    0.0798947573    0.4465377861
C       -0.3747583812   -3.0834115523   -0.1167038621
C       -1.2750320068   -0.2025820228    1.6309912357
C        0.7085059703   -0.9837532703    0.0856984305
N       -0.5470063485   -0.4072412012    2.8359482156
O       -0.4175624599    1.1166402874   -0.1804799425
O        0.4735125059   -2.2494684760    0.6663082730
H       -0.5032396667   -4.0132836446    0.4400618665
H        0.0785191681   -3.3035697581   -1.0931269696
H       -1.3627609443   -2.6287272290   -0.2858014937
H       -1.9392431046    0.6578263829    1.7388732963
H       -1.8745890059   -1.0939782351    1.4206282518
H        1.6717628382   -0.6275794472    0.4695343890
H        0.7843574222   -1.0245927690   -1.0088248098
15   
torsion grid (30,)
C        0.2233083631   -0.4319378208    3.7815215670
C       -0.3916392600    0.0029093891    0.4075338035
C       -0.3959808011   -3.0620429625   -0.1863252562
C       -1.2644903018   -0.1944632649    1.6619164397
C        0.7298901203   -1.0090155462    0.1665146004
N       -0.4762902651   -0.3353986577    2.8373874813
O       -0.6037425740    0.9276351206   -0.3512763022
O        0.4435454700   -2.2972190282    0.6736227291
H       -0.5518899503   -4.0255434364    0.3020195218
H        0.0789595013   -3.2214239095   -1.1641852868
H       -1.3724805733   -2.5804254274   -0.3476376126
H       -1.9219216300    0.6730712181    1.7525147705
H       -1.8784054026   -1.0924720121    1.5347226289
H        1.6171155123   -0.6490695558    0.6999943833
H        0.9563912665   -1.0169461430   -0.9074667264
15   
torsion grid (45,)
C        0.3205906304   -0.3316657168    3.7718105902
C       -0.4486756771   -0.0838714410    0.3874850468
C       -0.4005192859   -3.0507788897   -0.2690304436
C       -1.2455203665   -0.1543619393    1.7040254985
C        0.7391080037   -1.0356963810    0.2419255313
N       -0.4104144603   -0.2613442211    2.8495321160
O       -0.7959017786    0.6797773642   -0.4917615970
O        0.4143940794   -2.3481553517    0.6662993654
H       -0.5674813065   -4.0454276917    0.1479123263
H        0.1021553495   -3.1416841600   -1.2416516291
H       -1.3723445160   -2.5586547108   -0.4231196165
H       -1.8650998119    0.7427077903    1.7710223090
H       -1.9045685288   -1.0289572229    1.6604677510
H        1.5516460409   -0.6889477431    0.8882596744
H        1.0750011031   -1.0052817223   -0.8023201814
15   
torsion grid (60,)
C        0.4088213045   -0.1690116339    3.7856583228
C       -0.5082072013   -0.1765162905    0.4081768512
C       -0.3832464083   -3.0643300430   -0.3921637990
C       -1.2269773482   -0.0820950453    1.7672801220
C        0.7215106740   -1.0798393422    0.3184771982
N       -0.3509765688   -0.1352113355    2.8848444951
O       -0.9800656167    0.3992929948   -0.5533109292
O        0.3601131770   -2.4160574540    0.6396260633
H       -0.5630391931   -4.0842816287   -0.0478899961
H        0.1865211323   -3.0895760254   -1.3309003493
H       -1.3472468421   -2.5717855496   -0.5806254539
H       -1.7998034041    0.8480448104    1.7802503132
H       -1.9338834659   -0.9178431590    1.8276355519
H        1.4750361608   -0.7753236774    1.0487190386
H        1.1338130752   -0.9978086575   -0.6949206873
15   
torsion grid (75,)
C        0.5231737331    0.3499918204    3.7584384109
C       -0.5469623232   -0.2835023467    0.4910594315
C       -0.3785572473   -3.0795742534   -0.5982380719
C       -1.2104688059   -0.0334945294    1.8576603541
C        0.6738422692   -1.2018850536    0.4437205280
N       -0.2762361283    0.1686709802    2.9108089563
O       -1.0737896662    0.1541520511   -0.5147324197
O        0.2183274343   -2.5452829488    0.5854546473
H       -0.6259216646   -4.1183262412   -0.3717038232
H        0.3265924409   -3.0453528478   -1.4395137747
H       -1.2913463559   -2.5406724185   -0.8814217268
H       -1.8664577865    0.8346379854    1.7642269830
H       -1.8269272780   -0.9094923362    2.0918096503
H        1.3559223316   -1.0150057925    1.2743452413
H        1.1911785221   -1.0472061058   -0.5110576451
15   
torsion grid (90,)
C        0.6610246468    0.7376876802    3.6171373936
C       -0.6157788641   -0.3870360004    0.5809281077
C       -0.3447804037   -3.0827979228   -0.7753843950
C       -1.1989519980    0.0174845526    1.9462991193
C        0.5933327410   -1.3244535668    0.5584149499
N       -0.1978468611    0.4061064977    2.8800408473
O       -1.1889983659   -0.0496330580   -0.4383974990
O        0.1078487393   -2.6637985528    0.5143222490
H       -0.6052383812   -4.1382943997   -0.6755350656
H        0.4535143883   -2.9701615237   -1.5215104521
H       -1.2225607414   -2.5170654425   -1.1079196907
H       -1.9064508668    0.8345945877    1.7906135190
H       -1.7452870912   -0.8453080588    2.3466828766
H        1.1944046956   -1.2413464676    1.4647186003
H        1.2081378378   -1.0883203620   -0.3195538189
15   
torsion grid (105,)
C        0.8060444409    0.9342096837    3.4513717138
C       -0.7153011432   -0.4799592171    0.6620491125
C       -0.2810673689   -3.0842779875   -0.9074158347
C       -1.1894236926    0.0873084149    2.0116824998
C        0.4904053104   -1.4266341378    0.6492726880
N       -0.1125950679    0.5460400246    2.8216157652
O       -1.3535738908   -0.2366777034   -0.3449969618
O        0.0402212753   -2.7594286846    0.4474374793
H       -0.4904752697   -4.1558597045   -0.9183787907
H        0.5702755574   -2.8703733797   -1.5685664506
H       -1.1565514759   -2.5319211230   -1.2639899296
H       -1.8904462496    0.9021252299    1.8190216574
H       -1.7219210523   -0.7114559326    2.5431537077
H        1.0182816143   -1.4190986280    1.6041225766
H        1.1784964880   -1.1063388917   -0.1455224916
15   
torsion grid (120,)
C        0.9633469421    1.0031271615    3.2769423074
C       -0.8302837218   -0.5617259192    0.7377108628
C       -0.2000659179   -3.0764695550   -1.0074262399
C       -1.1739018630    0.1704812014    2.0474559606
C        0.3683739644   -1.5197183459    0.7294482631
N       -0.0209564957    0.6283127741    2.7459992312
O       -1.5591013264   -0.4220982249   -0.2256697222
O       -0.0298699057   -2.8349504076    0.3921404535
H       -0.3536161095   -4.1526003836   -1.1117772350
H        0.7023723333   -2.7829428091   -1.5625752082
H       -1.0621812528   -2.5368013911   -1.4101253745
H       -1.8328637374    1.0097285972    1.8149840302
H       -1.7233936092   -0.5337002758    2.6848622943
H        0.8243044760   -1.5778479921    1.7200257820
H        1.1202056990   -1.1251364668    0.0288613362
15   
torsion grid (135,)
C        1.1001130568    1.0306528984    3.0835837800
C       -0.9485452494   -0.6559675650    0.8161013461
C       -0.1175499376   -3.0387282240   -1.0795389438
C       -1.1542405513    0.2295610178    2.0588859601
C        0.2571809828   -1.6019631682    0.7985412276
N        0.0649368226    0.6743413974    2.6447959906
O       -1.7866697354   -0.6345102708   -0.0635352085
O       -0.0725829965   -2.8932633992    0.3429846471
H       -0.2422046295   -4.1063161870   -1.2720640027
H        0.8252544158   -2.6990226930   -1.5325318848
H       -0.9531837071   -2.4834261268   -1.5146044144
H       -1.7731414420    1.0850617080    1.7797821383
H       -1.7088208254   -0.3683188324    2.7927801045
H        0.6511573202   -1.7171342517    1.8121812217
H        1.0506659512   -1.1333083404    0.1934947795
15   
torsion grid (150,)
C        1.1988504308    1.0192825696    2.9133029893
C       -1.0423844043   -0.7647578448    0.8954978168
C       -0.0574436092   -2.9729399152   -1.1229759459
C       -1.1332336236    0.2708480379    2.0323936460
C        0.1793357761   -1.6832602942    0.8696641013
N        0.1312773888    0.6899811427    2.5355651851
O       -1.9715800177   -0.8594063628    0.1190874513
O       -0.0767573039   -2.9428345040    0.3066262973
H       -0.1554813798   -4.0223337949   -1.4078735292
H        0.8981698673   -2.5852315539   -1.5054084626
H       -0.8852582551   -2.3979191186   -1.5479445440
H       -1.6994779724    1.1329968890    1.6727641893
H       -1.7072590443   -0.1943968837    2.8427554518
H        0.5153919069   -1.8541663069    1.8980850358
H        0.9982197157   -1.1482040969    0.3593170592
15   
torsion grid (165,)
C        1.2444975843    0.9528896547    2.8630300912
C       -1.1022268331   -0.8862665639    0.9864581026
C       -0.0332744501   -2.8951801595   -1.1457885991
C       -1.1114223771    0.3033734704    1.9671812966
C        0.1528338868   -1.7512351132    0.9294898620
N        0.1691226602    0.6703839838    2.4701748215
O       -2.1073825154   -1.1065945109    0.3418144150
O       -0.0280849439   -2.9787658168    0.2808935596
H       -0.0880684130   -3.9216361458   -1.5132078467
H        0.8957677416   -2.4327826623   -1.5106365738
H       -0.8958950745   -2.3304689073   -1.5127019440
H       -1.5714897380    1.1568209447    1.4624614470
H       -1.7629414183    0.0248033660    2.8027982523
H        0.4680673822   -1.9675647463    1.9571894220
H        0.9628659837   -1.1501188304    0.4817004352
15   
torsion grid (180,)
C        0.7826885637    2.8771948472    1.5591224436
C       -0.4887861178   -0.1899242527    0.3556874422
C        0.2739634891   -2.7645670726    1.8591441378
C       -0.9059115708    1.2947278158    0.3679317078
C        0.7905477067   -0.5808379016    1.0875282833
N        0.0090313421    2.1729368433    1.0150667456
O       -1.2059069041   -0.9787166775   -0.2251683634
O        1.0949883675   -1.9451141731    1.0267084798
H        0.6768680499   -3.7764733058    1.7875643013
H       -0.7680064322   -2.7653779064    1.5228750464
H        0.3255658014   -2.4311322518    2.9062958072
H       -1.0437528014    1.6069464733   -0.6714551561
H       -1.8819773158    1.3580894330    0.8591327470
H        0.7177766286   -0.2140287372    2.1258976802
H        1.6242560918   -0.0341408483    0.6302215682
