20   
torsion grid (-165,)
C        3.8559464385   -1.5104998670   -0.5598457026
C        3.5502105001   -2.8280437045   -0.4422505881
C        1.5491139916   -1.3835385435   -0.6127203646
C       -0.1303207998    1.1721321313    0.3963073962
C        0.1285384569    0.7566070138   -1.0690385785
C        0.1905290271   -0.7176691545   -0.5277487182
C       -0.9352424867   -1.6366044951   -0.9938957056
N        2.7152746862   -0.7308265849   -0.6515842026
N        0.0323354581   -0.1467935149    0.8310542356
O       -0.3871659340    2.1931508095    0.9735030310
S        1.8318999113   -3.0616882228   -0.4467070699
H        4.8347270067   -1.0493241979   -0.5943525707
H        4.2311719544   -3.6656487518   -0.3660166576
H       -0.7259766599    0.9321283794   -1.7246106976
H        1.0156145565    1.1816190245   -1.5440453153
H       -1.8893381234   -1.1144959698   -0.8933765946
H       -0.9936979203   -2.5471050579   -0.3878466517
H       -0.8039583039   -1.9206943338   -2.0418880385
H        2.7570933809    0.2858800876   -0.6991576043
H       -0.3299293013   -0.5948324233    1.6714243450
20   
torsion grid (-150,)
C        3.6962284582   -1.8830224516    0.4459338573
C        3.6043331789   -2.8697490495   -0.4829453475
C        1.6262276104   -1.3866414799   -0.4514468837
C       -0.5171433084    0.5179343965    1.0324469745
C        0.3035490606    0.8409216866   -0.2350972579
C        0.2748807900   -0.7092747370   -0.5149130593
C       -0.5416762814   -1.1387464522   -1.7297343130
N        2.5735223462   -1.0744153470    0.4401689743
N       -0.3993701839   -0.8568609011    0.7972583648
O       -1.0641794881    1.1504292245    1.8939118444
S        2.1007312955   -2.7661747445   -1.3406226844
H        4.5074977792   -1.6842595170    1.1346022432
H        4.3306714097   -3.6383623957   -0.7125231918
H       -0.2468023879    1.4233676960   -0.9757659303
H        1.2756293140    1.3115269603   -0.0719232265
H       -1.5055463715   -0.6253545234   -1.7133203843
H       -0.7409873800   -2.2155356511   -1.7238760991
H       -0.0318700785   -0.8782903239   -2.6619614369
H        2.4392827087   -0.3229610376    1.1158858908
H       -1.0112558614   -1.6099103359    1.1092330485
20   
torsion grid (-135,)
C        3.6496742148   -1.9302043680    0.4984414290
C        3.6712864418   -2.7411071544   -0.5912027386
C        1.6192712479   -1.3724693204   -0.4484103590
C       -0.5183142082    0.5911793383    0.9901325412
C        0.2996744463    0.8537012792   -0.2912505166
C        0.2625431450   -0.7117420046   -0.4977729459
C       -0.5916800511   -1.1915705671   -1.6667529432
N        2.4860134169   -1.1840359039    0.5525568157
N       -0.3705236970   -0.7966252254    0.8411010460
O       -1.0830553927    1.2610763692    1.8099819574
S        2.2188081095   -2.5569491140   -1.5224024172
H        4.4014029502   -1.8251609506    1.2703097601
H        4.4494607131   -3.4290451963   -0.8948524117
H       -0.2394124387    1.4120712707   -1.0581342629
H        1.2804486579    1.3088807673   -0.1378841127
H       -1.5545996701   -0.6766415902   -1.6427260911
H       -0.7848310719   -2.2675302967   -1.6095789545
H       -0.1144516378   -0.9674023586   -2.6257117290
H        2.2487632068   -0.5821862151    1.3416742654
H       -0.9960839592   -1.5269089009    1.1804652383
20   
torsion grid (-120,)
C        3.6234562304   -1.9950471028    0.5415642069
C        3.7569802510   -2.6068896629   -0.6637860765
C        1.6310359209   -1.3717456018   -0.4404704783
C       -0.4769244592    0.6500456939    0.9572407273
C        0.3200816892    0.8529391529   -0.3462525715
C        0.2711984522   -0.7219373232   -0.4813902915
C       -0.6115599689   -1.2494063395   -1.6076908820
N        2.4196450271   -1.3193162001    0.6366054077
N       -0.3227678615   -0.7477829362    0.8785756933
O       -1.0374196686    1.3544793855    1.7496754778
S        2.3566390875   -2.3300189338   -1.6529729622
H        4.3170294752   -1.9943159333    1.3726987187
H        4.5864275553   -3.2032508156   -1.0207469881
H       -0.2260678542    1.3830870442   -1.1280512780
H        1.3079634333    1.3010635181   -0.2219438915
H       -1.5764131538   -0.7380724444   -1.5793728843
H       -0.7909031317   -2.3241060346   -1.5067287174
H       -0.1617050143   -1.0572428163   -2.5869562347
H        2.0857247030   -0.8674986701    1.4900525813
H       -0.9749823459   -1.4462283896    1.2355772615
20   
torsion grid (-105,)
C        3.5515695119   -2.0829020347    0.5606579473
C        3.7781060901   -2.5013686525   -0.7112776833
C        1.5997402907   -1.3759989853   -0.4418798413
C       -0.4319892969    0.7513943748    0.8993886616
C        0.3384598496    0.8684738273   -0.4297414792
C        0.2497867357   -0.7092245921   -0.4781176321
C       -0.6685505659   -1.2754373603   -1.5575209189
N        2.3202345794   -1.4608883446    0.6776847466
N       -0.3092672755   -0.6567597409    0.8949916170
O       -0.9643563457    1.5064620015    1.6629088888
S        2.4304145401   -2.1134064921   -1.7385090872
H        4.1939195139   -2.1900736705    1.4253195449
H        4.6459061107   -3.0190002010   -1.0986890867
H       -0.2131116804    1.3707799222   -1.2259290009
H        1.3392558408    1.2966912708   -0.3454967794
H       -1.6249723809   -0.7481111424   -1.5318386894
H       -0.8559401010   -2.3420071366   -1.4023923919
H       -0.2391208727   -1.1370668384   -2.5549087548
H        1.9198416706   -1.1173246443    1.5543643186
H       -0.9987511076   -1.3060746146    1.2745906079
20   
torsion grid (-90,)
C        3.5123628517   -2.1784054347    0.5643883715
C        3.8312211096   -2.3777848290   -0.7402596555
C        1.5936073332   -1.3875655979   -0.4375496900
C       -0.3880090667    0.7938720751    0.8833160839
C        0.3450178105    0.8577416954   -0.4709341943
C        0.2451457563   -0.7170879803   -0.4549049456
C       -0.7001146054   -1.3189031032   -1.4934646525
N        2.2510795213   -1.6215554625    0.6975186578
N       -0.2806238868   -0.6195356167    0.9273474697
O       -0.8972358946    1.5775892978    1.6326443551
S        2.5348966803   -1.8649304013   -1.7803340421
H        4.1062347284   -2.4030457540    1.4410273396
H        4.7399100342   -2.8011577345   -1.1479494207
H       -0.2283902701    1.3331845166   -1.2681740855
H        1.3495762729    1.2834343604   -0.4292698182
H       -1.6553967208   -0.7893542882   -1.4636916344
H       -0.8815304442   -2.3796239420   -1.2972272797
H       -0.2925489746   -1.2177817833   -2.5042152873
H        1.7999958754   -1.3821948144    1.5851789743
H       -0.9975835945   -1.2324253762    1.3166756852
20   
torsion grid (-75,)
C        3.4631236425   -2.2746572183    0.5786530523
C        3.8824141469   -2.2563657423   -0.7123984648
C        1.5938411978   -1.3826836630   -0.4324796114
C       -0.3711833428    0.8433261620    0.8369762842
C        0.3261779270    0.8510156255   -0.5386716873
C        0.2413940116   -0.7170611986   -0.4440030378
C       -0.7156629537   -1.3765355022   -1.4395593597
N        2.1777671623   -1.7717135073    0.6992627994
N       -0.2633904424   -0.5718789966    0.9406048405
O       -0.8675491007    1.6548929441    1.5640969247
S        2.6525505282   -1.6037293291   -1.7551322368
H        3.9993338619   -2.6209759951    1.4528056178
H        4.8320571278   -2.5892789522   -1.1105815613
H       -0.2769936253    1.2830193267   -1.3386605165
H        1.3254747380    1.2907434142   -0.5451360737
H       -1.6751179648   -0.8535886703   -1.4202865458
H       -0.8843168691   -2.4281638859   -1.1895697110
H       -0.3220165357   -1.3236732283   -2.4591344425
H        1.6776945075   -1.6323233721    1.5820696296
H       -1.0045985316   -1.1511958223    1.3360183770
20   
torsion grid (-60,)
C        3.4418916452   -2.4138203629    0.4991476636
C        3.9375148245   -2.1574919280   -0.7382620909
C        1.6293614296   -1.3386962201   -0.4372851702
C       -0.3033581547    0.9224231582    0.8336839077
C        0.3349362121    0.8858625957   -0.5713299594
C        0.2750517513   -0.6737317664   -0.4113340287
C       -0.7093117106   -1.3842354328   -1.3480494167
N        2.1494562292   -1.9324480688    0.6353078969
N       -0.1862632820   -0.4900140226    0.9821060871
O       -0.7766258670    1.7554919662    1.5515093864
S        2.7726797930   -1.3033244489   -1.7065142922
H        3.9276743615   -2.9174438550    1.3249741099
H        4.9111001478   -2.4155363947   -1.1341746627
H       -0.3113799467    1.2794304362   -1.3571964935
H        1.3250766856    1.3406940545   -0.6374530490
H       -1.6734850192   -0.8702324525   -1.3153829000
H       -0.8579797775   -2.4263456806   -1.0491905542
H       -0.3494776155   -1.3714003877   -2.3809209659
H        1.6241294069   -1.9233177245    1.5128699989
H       -0.9279770847   -1.0481689035    1.4057957052
20   
torsion grid (-45,)
C        3.3885363951   -2.5316940099    0.4344732759
C        3.9763995333   -2.0484514394   -0.6895197950
C        1.6521635275   -1.2648604096   -0.4057312009
C       -0.3177400906    1.0332693159    0.7617117112
C        0.2946909728    0.9220506756   -0.6513729974
C        0.2855412924   -0.6216305340   -0.3878587804
C       -0.6941074545   -1.4226992922   -1.2570163893
N        2.0894886558   -2.0661743885    0.5658120116
N       -0.1606963390   -0.3603944408    0.9977375533
O       -0.8023873144    1.8993379216    1.4318189788
S        2.8901590812   -1.0010837049   -1.5513819446
H        3.8113377416   -3.1898344270    1.1826596462
H        4.9782185405   -2.2374122445   -1.0525805005
H       -0.3801578708    1.2446006749   -1.4453675982
H        1.2667886414    1.4047822144   -0.7676191704
H       -1.6712647345   -0.9326442054   -1.2415906884
H       -0.8116823597   -2.4450167724   -0.8839707502
H       -0.3501134960   -1.4738446401   -2.2938769187
H        1.5156745322   -2.2307891472    1.3934988492
H       -0.8770454768   -0.9069642885    1.4759290056
20   
torsion grid (-30,)
C        3.3502725858   -2.6633646614    0.3392402326
C        4.0232245884   -1.9504567313   -0.5997397217
C        1.6737792682   -1.2304499259   -0.3457425981
C       -0.3468793025    1.0896298692    0.7138470027
C        0.2499998406    0.9069513077   -0.6987087350
C        0.2908233806   -0.6178831180   -0.3466969480
C       -0.6768787410   -1.4981648362   -1.1495954581
N        2.0371143733   -2.2350814464    0.4556455186
N       -0.1445246570   -0.2746245518    1.0242120457
O       -0.8423897936    1.9850732236    1.3376369131
S        2.9963529192   -0.7414439435   -1.3046914777
H        3.7185826975   -3.4694745628    0.9607722444
H        5.0553941947   -2.0595130740   -0.9061060371
H       -0.4410057358    1.1614745658   -1.5032276545
H        1.2041585817    1.4140763760   -0.8547102244
H       -1.6646050817   -1.0299990007   -1.1571236972
H       -0.7727054418   -2.4954801326   -0.7076200580
H       -0.3390935711   -1.6140563070   -2.1833392131
H        1.3971509922   -2.6171915049    1.1506144206
H       -0.7813736873   -0.8225926603    1.6015406098
20   
torsion grid (-15,)
C        3.3370038959   -2.7123000858    0.2568002229
C        4.0753941059   -1.8203004950   -0.4515754208
C        1.6856052041   -1.2024511544   -0.3218366313
C       -0.3762140718    1.1341627668    0.6151827214
C        0.1998269670    0.8764282286   -0.7938847172
C        0.2863423397   -0.6243327827   -0.3553445980
C       -0.6736183955   -1.5715526612   -1.0845640928
N        2.0026730015   -2.3403777999    0.3052656903
N       -0.1349518730   -0.1980150907    0.9971951625
O       -0.8748511588    2.0591407238    1.1931138754
S        3.0785117664   -0.5251829496   -1.0336635212
H        3.6691452691   -3.6174502119    0.7489623557
H        5.1372123735   -1.8500604000   -0.6584548596
H       -0.5078182269    1.0631581867   -1.6024919699
H        1.1354934094    1.4005429705   -0.9990502726
H       -1.6696046686   -1.1224850482   -1.1082231455
H       -0.7551172794   -2.5401357728   -0.5790888403
H       -0.3455590265   -1.7489777047   -2.1127290447
H        1.3057888695   -2.8874519217    0.8079649268
H       -0.6751672707   -0.7330746884    1.6754974643
20   
torsion grid (0,)
C        3.2794298122   -2.7902286375    0.1469756683
C        4.0686041220   -1.7891050592   -0.3192039482
C        1.6675814442   -1.1993849005   -0.3205371043
C       -0.3191150835    1.2134512034    0.5531165423
C        0.1896628275    0.8719749325   -0.8644521546
C        0.2728313766   -0.6082543841   -0.3564454929
C       -0.7296821333   -1.5722651401   -0.9969830260
N        1.9409258158   -2.4307044815    0.1262948408
N       -0.0926956704   -0.1014865845    0.9845509335
O       -0.7638669917    2.1804558218    1.1067824129
S        3.1131098911   -0.4145425889   -0.7725626116
H        3.5757972184   -3.7693652097    0.5009091517
H        5.1456335885   -1.7847859994   -0.4249882348
H       -0.5483573289    1.0273218615   -1.6523743675
H        1.1215337622    1.3689337710   -1.1416796021
H       -1.7134195944   -1.0977391713   -1.0216657773
H       -0.8344079121   -2.5024567732   -0.4267300639
H       -0.4368975743   -1.8239452930   -2.0202690698
H        1.2055689395   -3.0634122451    0.4364461333
H       -0.5515970364   -0.5965640446    1.7474719257
20   
torsion grid (15,)
C        3.3762000731   -2.6084930699   -0.8559958710
C        4.0838270104   -1.6757178560   -0.1694596195
C        1.7201420236   -1.0327776732   -0.5043038605
C       -0.6089737899    0.5441557888    1.1009245800
C        0.2013628192    1.0444026964   -0.1151944756
C        0.3149656621   -0.4668464856   -0.5230058828
C       -0.4473581166   -0.8570921780   -1.7907657337
N        2.0582880500   -2.2152668080   -1.0308537119
N       -0.3668344058   -0.7891357592    0.7497447548
O       -1.2285763687    1.0473019049    1.9969868283
S        3.0830590444   -0.3201902340    0.2397571077
H        3.7205784840   -3.5543117611   -1.2541482647
H        5.1294323149   -1.7050607482    0.1082012665
H       -0.3745589431    1.6469124861   -0.8189453116
H        1.1231556056    1.5726580488    0.1357455806
H       -1.4347884779   -0.3908734977   -1.7672552686
H       -0.6124651741   -1.9388166212   -1.8604934145
H        0.0740928477   -0.5182383824   -2.6908088128
H        1.3832879093   -2.7870617289   -1.5355405538
H       -0.8891644816   -1.6254959859    1.0052093291
20   
torsion grid (30,)
C        3.4193189298   -2.5281421830   -0.9663126557
C        4.0433636708   -1.7434274878   -0.0514853019
C        1.6971776800   -1.0747088499   -0.4466439232
C       -0.6175648549    0.6277177653    1.0614836477
C        0.2057307008    1.0417405699   -0.1784649720
C        0.2988649427   -0.4977290189   -0.4915107633
C       -0.4814333454   -0.9529820203   -1.7253198903
N        2.1081892228   -2.1237176794   -1.1671877693
N       -0.3822085542   -0.7270021894    0.8013509737
O       -1.2383898807    1.1937849250    1.9181836049
S        2.9766316858   -0.5110440542    0.5397235751
H        3.8193670956   -3.3725059769   -1.5127722916
H        5.0629235662   -1.8184826601    0.3036689404
H       -0.3566060612    1.6080984543   -0.9223786385
H        1.1383332442    1.5640492299    0.0414308237
H       -1.4668685551   -0.4824397028   -1.7125768003
H       -0.6501961178   -2.0363543425   -1.7306034443
H        0.0214101766   -0.6586825539   -2.6520198005
H        1.4898190448   -2.5900115399   -1.8287645998
H       -0.9128491359   -1.5411071435    1.1072315362
20   
torsion grid (45,)
C        3.4745567278   -2.4335100997   -1.0651134647
C        3.9990316859   -1.8451869213    0.0398223896
C        1.6672280967   -1.1583347457   -0.3936687070
C       -0.5782430299    0.7118221855    1.0197326930
C        0.2534805831    1.0178945007   -0.2450847580
C        0.2888478139   -0.5464730029   -0.4594251456
C       -0.5239870144   -1.0484479545   -1.6528928395
N        2.1673855680   -2.0232595243   -1.2823627977
N       -0.3794894883   -0.6635115659    0.8544368779
O       -1.1811366795    1.3542449018    1.8341909946
S        2.8443863743   -0.7938966501    0.7949428123
H        3.9427474399   -3.1408582930   -1.7374704394
H        4.9886484010   -1.9796870622    0.4567802809
H       -0.2903591546    1.5562621544   -1.0229667436
H        1.2097131379    1.5094566736   -0.0604349268
H       -1.5085101766   -0.5763217303   -1.6328204758
H       -0.6831770293   -2.1319603129   -1.6134793398
H       -0.0529138475   -0.7816133781   -2.6051344932
H        1.6158502019   -2.3542578218   -2.0721959277
H       -0.9379637646   -1.4368329011    1.2128768450
20   
torsion grid (60,)
C        3.5227252316   -2.3227773871   -1.1221498461
C        3.9319053450   -1.9515989232    0.1176004962
C        1.6282705731   -1.2290175331   -0.3822591859
C       -0.5004195887    0.7863557690    0.9775607248
C        0.3005905261    0.9900072638   -0.3263540531
C        0.2686619788   -0.5874303453   -0.4508089447
C       -0.5909890780   -1.1261721274   -1.5943031907
N        2.2253501897   -1.8988478295   -1.3734217706
N       -0.3564668188   -0.6044937598    0.8878684737
O       -1.0531790846    1.4964880589    1.7706661015
S        2.6815218004   -1.0894059637    0.9584754724
H        4.0677174115   -2.8822493159   -1.8715809471
H        4.8853563168   -2.1538907818    0.5879905218
H       -0.2485221662    1.5048959386   -1.1164948415
H        1.2825116711    1.4479132898   -0.1979449430
H       -1.5736607179   -0.6512965895   -1.5527555458
H       -0.7377556683   -2.2085076433   -1.5177946331
H       -0.1605731942   -0.8865167911   -2.5730519924
H        1.7514059349   -2.0827858062   -2.2560385044
H       -0.9507489612   -1.3272133074    1.2919860281
20   
torsion grid (75,)
C        3.5819666997   -2.1789597055   -1.1323391057
C        3.8771658361   -2.0301045744    0.1839959587
C        1.6125383040   -1.2439164963   -0.3777903796
C       -0.4868366998    0.8177583301    0.9439334445
C        0.2840861768    0.9628770309   -0.3862734925
C        0.2478494232   -0.6181243699   -0.4336476854
C       -0.6405496882   -1.2118992695   -1.5283864272
N        2.3000251324   -1.7277250325   -1.4169750871
N       -0.3346032432   -0.5788976380    0.9210726450
O       -1.0318058287    1.5595629925    1.7122941297
S        2.5413061805   -1.3371147052    1.0528788876
H        4.2002665712   -2.5921590521   -1.9189754445
H        4.7936890283   -2.3039476902    0.6901743872
H       -0.2799665428    1.4444882380   -1.1866740851
H        1.2704349317    1.4211120834   -0.2943949987
H       -1.6237014613   -0.7378447447   -1.4841620822
H       -0.7723446170   -2.2903166092   -1.3987468742
H       -0.2373459012   -1.0196352291   -2.5288639807
H        1.9049105598   -1.7600537648   -2.3551038492
H       -0.9457174385   -1.2734840031    1.3490243516
20   
torsion grid (90,)
C        3.6088064673   -2.0843091804   -1.1394473527
C        3.8073078031   -2.1722857702    0.2002682426
C        1.6001712103   -1.2479846467   -0.3747739266
C       -0.4812769153    0.8513662319    0.9096250232
C        0.2536633980    0.9419534380   -0.4461433639
C        0.2282445453   -0.6368328216   -0.4172455203
C       -0.6778924381   -1.2944067387   -1.4616348920
N        2.3547373728   -1.5644503568   -1.4318528779
N       -0.3210760978   -0.5478933357    0.9475380938
O       -1.0161833850    1.6217527503    1.6561311236
S        2.4201750404   -1.6010241911    1.0786606659
H        4.2817148763   -2.3636378424   -1.9401254088
H        4.6846609806   -2.5423032774    0.7145834533
H       -0.3386915393    1.3830391431   -1.2494637817
H        1.2376856517    1.4127965821   -0.4010065586
H       -1.6622944876   -0.8216436656   -1.4276139462
H       -0.7983569367   -2.3641657285   -1.2675965574
H       -0.2901729901   -1.1644841130   -2.4777414404
H        2.0285061153   -1.4309102016   -2.3873531308
H       -0.9535865417   -1.2135060314    1.3903049896
20   
torsion grid (105,)
C        3.6676766330   -2.0103178818   -1.1460971629
C        3.7816324582   -2.3224341839    0.1699078696
C        1.6422566633   -1.2297804532   -0.3665600433
C       -0.4193200643    0.9380844753    0.8459125210
C        0.2870155114    0.9528813866   -0.5289453255
C        0.2692783697   -0.6179637752   -0.4057347623
C       -0.6503368843   -1.3455808209   -1.3932749438
N        2.4495833072   -1.4019433692   -1.4181758537
N       -0.2593775382   -0.4589045199    0.9595584018
O       -0.9416662430    1.7485856109    1.5577789298
S        2.3631311605   -1.8409486140    1.0512658444
H        4.3831721550   -2.1750900072   -1.9416040834
H        4.6183989925   -2.7958791177    0.6667097224
H       -0.3277625641    1.3453110569   -1.3405218867
H        1.2681822613    1.4321560382   -0.5309306872
H       -1.6317983648   -0.8651529969   -1.3866455069
H       -0.7738195397   -2.3968067864   -1.1168792782
H       -0.2650082059   -1.3011014337   -2.4170399194
H        2.1871470824   -1.1008693603   -2.3553029204
H       -0.9048960205   -1.0913530925    1.4310152962
20   
torsion grid (120,)
C        3.6943616956   -1.9390681233   -1.1208369046
C        3.7241386931   -2.4768551585    0.1251066315
C        1.6423159470   -1.2412481256   -0.3296902191
C       -0.4218242790    0.9853817523    0.7989388940
C        0.2726236587    0.9298761694   -0.5824770826
C        0.2680823234   -0.6285810756   -0.3721173195
C       -0.6540385635   -1.4192935871   -1.3109357370
N        2.5076698937   -1.2555799590   -1.3484367532
N       -0.2539863072   -0.4018909990    0.9854837512
O       -0.9432365075    1.8304145796    1.4703057622
S        2.2688121756   -2.1051017172    0.9981415960
H        4.4543744410   -1.9824025827   -1.8904903009
H        4.5220315572   -3.0488517224    0.5804240761
H       -0.3544814147    1.2735774823   -1.4064856412
H        1.2482860925    1.4195269542   -0.6169844904
H       -1.6377081153   -0.9431645818   -1.3273181374
H       -0.7715553280   -2.4519266203   -0.9691530990
H       -0.2684324535   -1.4384081188   -2.3349458329
H        2.3074982206   -0.7864646472   -2.2306824227
H       -0.8971842046   -1.0092297371    1.4914589597
20   
torsion grid (135,)
C        3.7446656782   -1.8501676219   -1.1057079345
C        3.6950227808   -2.5989916348    0.0252687145
C        1.6489840667   -1.2686984949   -0.3309182065
C       -0.4067318274    1.0281314497    0.7094632934
C        0.2771032761    0.8951388712   -0.6730751104
C        0.2762824058   -0.6468658681   -0.3749975305
C       -0.6589679233   -1.4874873630   -1.2573629792
N        2.5779457915   -1.1186830528   -1.2795984341
N       -0.2324027986   -0.3428500943    0.9725036586
O       -0.9246548837    1.9108700160    1.3337732263
S        2.1889840946   -2.3647129347    0.8577017002
H        4.5518490208   -1.7678238060   -1.8222534076
H        4.4604722082   -3.2525782440    0.4228419608
H       -0.3542762209    1.1941405850   -1.5107931106
H        1.2500332399    1.3883368419   -0.7340365632
H       -1.6380612141   -1.0031834112   -1.2989290289
H       -0.7858420068   -2.4943702733   -0.8483903086
H       -0.2748648512   -1.5775200338   -2.2779054456
H        2.4344125585   -0.4973042007   -2.0747223150
H       -0.8551023500   -0.9234041046    1.5323339357
20   
torsion grid (150,)
C        3.7847113435   -1.7525846136   -1.0326826700
C        3.6484434967   -2.6962815212   -0.0670045719
C        1.6284740418   -1.3016199374   -0.3372796998
C       -0.3944725060    1.0675450764    0.6454576534
C        0.2559043682    0.8626067443   -0.7448559406
C        0.2604260975   -0.6613895070   -0.3715457710
C       -0.7084054523   -1.5334813242   -1.1833943400
N        2.6319884481   -0.9904021835   -1.1614306705
N       -0.2074228773   -0.2843193641    0.9747522702
O       -0.8980756936    1.9828099856    1.2344216443
S        2.0766226380   -2.6091893506    0.6645392015
H        4.6457976612   -1.5483510663   -1.6559909392
H        4.3814757081   -3.4207222442    0.2632484959
H       -0.3890736178    1.1221851846   -1.5849668642
H        1.2241123514    1.3595435267   -0.8436531406
H       -1.6815629729   -1.0376471619   -1.2281713576
H       -0.8411290712   -2.5147671761   -0.7177121607
H       -0.3475293491   -1.6844059457   -2.2052037466
H        2.5485485686   -0.2353618888   -1.8407984124
H       -0.7969701061   -0.8365097669    1.5957814896
20   
torsion grid (165,)
C        3.8424888429   -1.6535835745   -0.9012467509
C        3.6091271963   -2.7724958933   -0.1701605147
C        1.6040329921   -1.3464915296   -0.4158894772
C       -0.3270458835    1.0997165901    0.5722714556
C        0.2207340442    0.8266681609   -0.8492356321
C        0.2436057183   -0.6809768163   -0.4165113874
C       -0.7898237689   -1.5691898055   -1.1192966073
N        2.6973794687   -0.8791000920   -1.0215739756
N       -0.1278049009   -0.2359690350    0.9429763799
O       -0.7766687569    2.0470085795    1.1552998350
S        1.9545910235   -2.8357014385    0.3483050382
H        4.7679678302   -1.3321645699   -1.3615140133
H        4.3094641355   -3.5548567184    0.0919346024
H       -0.4793653843    1.0505962711   -1.6546063153
H        1.1726848145    1.3264585684   -1.0431927168
H       -1.7548391996   -1.0563984082   -1.1298724467
H       -0.9165675054   -2.5226392427   -0.5967335294
H       -0.4936851525   -1.7795521140   -2.1512604218
H        2.6851051345   -0.0036685739   -1.5418521192
H       -0.6398285943   -0.7596980172    1.6512808334
20   
torsion grid (180,)
C        3.8666435283   -1.5608558360   -0.7053310967
C        3.5655541045   -2.8168533528   -0.2892532854
C        1.5669579477   -1.3830099801   -0.5584563849
C       -0.1976777879    1.1295590468    0.4788895217
C        0.1606960586    0.7864712408   -0.9847447129
C        0.2106428518   -0.7075107777   -0.5054641874
C       -0.8902673875   -1.6079542588   -1.0657323692
N        2.7258818211   -0.7855304590   -0.8456690095
N       -0.0176714284   -0.2016764943    0.8684725890
O       -0.5279683532    2.1150241498    1.0792169899
S        1.8531609974   -3.0027192544   -0.0857656503
H        4.8397030029   -1.1420615410   -0.9278769326
H        4.2455551497   -3.6380678133   -0.1037772921
H       -0.6457400118    0.9836902109   -1.6924249331
H        1.0705056112    1.2594311414   -1.3608993158
H       -1.8490436124   -1.0889171310   -0.9963140560
H       -0.9764970997   -2.5412638252   -0.4992007295
H       -0.7007373411   -1.8552807967   -2.1141356665
H        2.7675276549    0.1907311781   -1.1313690233
H       -0.4344019376   -0.6901392234    1.6596442305
