8    
torsion grid (-165,)
C        2.3205919996    0.0759687215    1.9398220779
C        1.0200789831   -0.5403776613    2.5783895775
F        3.0479705448   -0.9077366087    1.3755057913
F        1.9401675298    0.9307394429    0.9730023532
F        0.1583118859    0.4696101199    2.8152496916
Cl       0.3020280006   -1.6997536457    1.4303564583
Br       3.4816511916    1.0046294778    3.2127076463
Br       1.3846971942   -1.4716646518    4.2690011113
8    
torsion grid (-150,)
C       -0.7887850334    0.9233306638    6.6267193047
C       -2.0886297877    0.1143240710    6.1876941297
F       -0.1343324169    0.2300696227    7.5801485440
F        0.0134863078    1.0157628097    5.5524726355
F       -2.3306498041    0.4074017406    4.8940037401
Cl      -1.7961448800   -1.6340093061    6.3746037973
Br      -1.1075050688    2.7062420953    7.3681727499
Br      -3.6929886018    0.5775763237    7.2273517017
8    
torsion grid (-135,)
C        0.4750584312    0.1284391639    0.7140047219
C       -0.1231562583    0.0674094403   -0.7823240814
F       -0.3105303214   -0.5867379010    1.5425613542
F        1.6832322189   -0.4587994500    0.6874215539
F        0.9052355738   -0.2127208341   -1.6100168308
Cl      -1.3428075616   -1.2255761922   -0.9056930995
Br       0.6494546924    1.9057347377    1.5169902810
Br      -0.9319310691    1.7467304519   -1.4092787037
8    
torsion grid (-120,)
C        0.4808730120    0.1043750128    0.7163094797
C       -0.1536884405    0.0525867947   -0.7736962690
F       -0.1403961929   -0.7863573816    1.5096899600
F        1.7680672977   -0.2728593777    0.6135393489
F        0.8233877754   -0.3996065494   -1.5931695635
Cl      -1.5032736176   -1.1077246610   -0.8384641763
Br       0.4364923950    1.8345313134    1.6289833975
Br      -0.7341485925    1.7833619006   -1.4911010210
8    
torsion grid (-105,)
C        0.4850123041    0.1184534883    0.7155256791
C       -0.1760155774    0.0664659621   -0.7500941667
F        0.0434138154   -0.9121656384    1.4550857024
F        1.8139445666   -0.0372235839    0.5546096127
F        0.7318689345   -0.5537200703   -1.5458707611
Cl      -1.6374254538   -0.9496998362   -0.7422111334
Br       0.2217071519    1.7789428798    1.7153206203
Br      -0.5289879258    1.8141495920   -1.5529481979
8    
torsion grid (-90,)
C        0.4848438068    0.1164960963    0.6897088313
C       -0.2038099904    0.0452640013   -0.7396125248
F        0.2192426741   -1.0061296048    1.3763005280
F        1.8177363750    0.1656218024    0.4838186988
F        0.6278530076   -0.7140527487   -1.5035191952
Cl      -1.7515221347   -0.8240204252   -0.6416332566
Br       0.0059623929    1.6804250529    1.7598772605
Br      -0.3741659825    1.7781189367   -1.6214457354
8    
torsion grid (-75,)
C        0.5240048753    0.1277213965    0.6995352317
C       -0.1686723947    0.0587823369   -0.7109876775
F        0.3767310893   -1.0577386252    1.3172345982
F        1.8422990832    0.3261872503    0.4980713784
F        0.5825797716   -0.8052952049   -1.4441696322
Cl      -1.8007062869   -0.6258244089   -0.5711629840
Br      -0.1453561432    1.5610027312    1.8457128471
Br      -0.1538847384    1.7833067994   -1.6304290783
8    
torsion grid (-60,)
C       -2.8075546927   -0.6610324123    2.3978757077
C       -2.9864516013   -0.3986717627    0.8618027325
F       -1.8685223801   -1.6171432817    2.5493338715
F       -2.3446816061    0.4632997451    2.9738496958
F       -1.7610870800   -0.0570687062    0.3929999976
Cl      -3.5340180177   -1.8602925154    0.0204792413
Br      -4.4452430048   -1.2289975732    3.2985614411
Br      -4.2007654990    1.1094639019    0.5524104456
8    
torsion grid (-45,)
C        0.2462225358    0.2531136465    0.7790037795
C       -0.3400261100    0.0176316047   -0.6636270918
F        0.4055293772   -0.9648217234    1.3448697457
F        1.4605648921    0.8180013408    0.6834549732
F        0.3845348598   -0.9779920919   -1.2208335760
Cl      -2.0517758671   -0.4392630694   -0.6323702183
Br      -0.8985566461    1.3138098609    1.9539400597
Br      -0.0955269802    1.6440020652   -1.7465598093
8    
torsion grid (-30,)
C        2.4650601743   -0.3116544359    1.9591263070
C        2.3151839309    0.8677402347    3.0169948127
F        3.6510369736   -0.9090787765    2.2168537009
F        1.5047977429   -1.2295422567    2.1443438624
F        2.9236141256    0.4645227004    4.1517902075
Cl       3.0211351049    2.3997633821    2.4757226144
Br       2.4998276899    0.2431874803    0.0852847196
Br       0.4019050666    1.1511957910    3.4130323956
8    
torsion grid (-15,)
C        0.2483701007    0.2954553490    0.7967852775
C       -0.3711986415   -0.0023714269   -0.6599513437
F        0.7505240620   -0.8717922624    1.2513989750
F        1.2676269258    1.1634138793    0.7103337616
F        0.1328962964   -1.1840832381   -1.0731720251
Cl      -2.1416852641   -0.0959415297   -0.6916931324
Br      -1.0152378612    0.9439406620    2.1432141104
Br       0.2133178623    1.3810397534   -1.9403327259
8    
torsion grid (0,)
C       -2.4359466444    0.8644243171    0.6682312358
C       -1.7391815592    0.0941362694    1.9087496639
F       -3.6254571785    0.2787892869    0.4480161102
F       -2.6699756981    2.1494059473    0.9878878341
F       -2.5747809767   -0.9095974275    2.2620654939
Cl      -0.1633468763   -0.6307601905    1.5359363903
Br      -1.4304453212    0.8643365177   -1.0146326491
Br      -1.5663551051    1.2903961680    3.4626186324
8    
torsion grid (15,)
C       -2.4210328866    0.8740647358    0.6837197422
C       -1.7160631853    0.1073652159    1.9065180449
F       -3.6904152811    0.4490517817    0.6071378436
F       -2.4425781935    2.1995449846    0.9298629136
F       -2.4663139213   -0.9997884841    2.1391385298
Cl      -0.0666478517   -0.4541366825    1.5762456597
Br      -1.5548208704    0.6598373323   -1.0623231394
Br      -1.7693271123    1.2070337107    3.5332955372
8    
torsion grid (30,)
C        6.3755852482    3.3903283970   -8.0492245093
C        5.6377621837    3.5372485928   -6.6518209184
F        5.6953096371    4.1044614632   -8.9574479258
F        7.6201290993    3.9034677154   -7.9545542547
F        4.3095998770    3.5917029828   -6.9340173164
Cl       5.8777188039    2.1660828414   -5.5555466124
Br       6.5874898107    1.5441841723   -8.6754460361
Br       6.1366195099    5.2373563486   -5.8068683126
8    
torsion grid (45,)
C        0.3837030813    0.0757769878    0.6785719804
C       -0.3319355152   -0.0118160226   -0.7170665551
F        0.3492845953   -1.1388000254    1.2497541227
F        1.6718758789    0.4296675111    0.5012729075
F       -1.5072481795   -0.6569437519   -0.5119773628
Cl      -0.6907004870    1.5768562259   -1.4140978066
Br      -0.4280405603    1.3890125279    1.8871204701
Br       0.7571108284   -1.1038580373   -1.9336172958
8    
torsion grid (60,)
C        0.4114992863    0.0916240159    0.6677626397
C       -0.3275591560   -0.0111831734   -0.7072320401
F        0.5236211620   -1.1399402367    1.1966067845
F        1.6444918752    0.5935089249    0.4860725771
F       -1.5468211453   -0.5506240506   -0.4857197478
Cl      -0.5152257078    1.5804771341   -1.4641291546
Br      -0.5635473990    1.2258966477    1.9363761707
Br       0.6799174689   -1.2277523652   -1.8823612513
8    
torsion grid (75,)
C        9.7174323758  -14.0918093876   13.9283572070
C        8.3660180969  -13.3083021268   13.7964906220
F        9.4619571343  -15.3878039693   14.1923118651
F       10.4076753117  -14.0239288625   12.7811298738
F        7.8026065731  -13.1845759174   15.0141314510
Cl       8.6426076940  -11.7080728111   13.0815097546
Br      10.7924789382  -13.3938287157   15.4148797253
Br       7.1322390084  -14.3453527389   12.6561133090
8    
torsion grid (90,)
C       16.9061586570  -13.5397265282    8.1816047084
C       15.3640609514  -13.7497023730    7.8954921022
F       17.4645106357  -14.7015952634    8.5763844082
F       17.5404524848  -13.1375398745    7.0729754473
F       14.6587669655  -13.6191404768    9.0335764276
Cl      14.7963789881  -12.5825087291    6.6836402338
Br      17.1860013884  -12.2594697480    9.6438049957
Br      15.0631134524  -15.5813229493    7.2140715523
8    
torsion grid (105,)
C       16.8965753773  -13.5197611839    8.1760316486
C       15.3375426229  -13.7496183796    7.8889012562
F       17.5172752217  -14.6963152799    8.3808847457
F       17.4888118794  -12.9346289949    7.1248617785
F       14.6117187524  -13.4516251835    8.9837944551
Cl      14.7939472552  -12.7332665700    6.5345372739
Br      17.1833830350  -12.4376821341    9.7874355001
Br      14.9887306663  -15.6429880826    7.4564356165
8    
torsion grid (120,)
C       16.9067436729  -13.5040596296    8.1627873767
C       15.3424117022  -13.7398044428    7.8594974145
F       17.5780661583  -14.6672187145    8.1403543004
F       17.4512125574  -12.7163340511    7.2189092192
F       14.6010830688  -13.2697158602    8.8860762118
Cl      14.8425813353  -12.8717325165    6.3895455125
Br      17.1994538645  -12.6588505185    9.9076175467
Br      14.9384171794  -15.6577562782    7.6893390719
8    
torsion grid (135,)
C       -2.0081623627    4.7587593616   -3.9079190849
C       -0.9499156272    3.5593947117   -3.9782212895
F       -3.0417749784    4.5314670409   -4.7325933759
F       -2.5086604338    4.8541730797   -2.6600708260
F        0.3037251493    4.0676299491   -3.9264856838
Cl      -1.1220622437    2.4780096889   -2.5756428878
Br      -1.1891621358    6.4879298080   -4.3287765449
Br      -1.1145843585    2.5825011961   -5.6701869326
8    
torsion grid (150,)
C       -2.0167165295    4.7440986414   -3.9024306136
C       -0.9572277877    3.5707160404   -3.9839982138
F       -3.1321458094    4.4187516697   -4.5714709797
F       -2.3593540918    4.9482905540   -2.6127983288
F        0.2778853992    4.0862344957   -3.7712805825
Cl      -1.2454630074    2.3817954208   -2.6903838460
Br      -1.2806997781    6.4329895374   -4.5665907728
Br      -0.9761032688    2.7537122669   -5.7617081447
8    
torsion grid (165,)
C       -1.9805212038    4.7616325883   -3.8843133857
C       -0.9731505690    3.5608259129   -3.9566224218
F       -3.1636434457    4.4067879213   -4.4089353728
F       -2.1769490426    5.0880809511   -2.5904168464
F        0.2541749155    4.0162200224   -3.6172849544
Cl      -1.4407723517    2.3142745796   -2.7740587387
Br      -1.2798671718    6.3476909934   -4.7946159368
Br      -0.8960559254    2.8336036748   -5.7730519638
8    
torsion grid (180,)
C        1.3036291283   -0.0374702071    2.0051341788
C       -0.1953321682   -0.4530200653    1.8274097183
F        2.0771318418   -1.1366134165    2.0416677311
F        1.6681336777    0.7035754485    0.9412127291
F       -0.9333285722    0.6729141097    1.7292428264
Cl      -0.3624291139   -1.3978410443    0.3254228097
Br       1.6048312886    1.0102191820    3.6313862546
Br      -0.8289298742   -1.5056765345    3.3564799607
