12   
torsion grid (-165,)
C        0.1321568264   -0.7171032906   -0.7995396770
N       -0.0296639257    0.4236551043   -0.1601888674
N        1.7156244599   -1.0860891144   -1.2286202699
N        0.8494034696    2.2418809378    0.7448873586
O       -0.6342991642   -1.5681854958   -1.1573340576
O        1.2801457846    1.1289200119    0.0126965506
H        1.8169568974   -2.0851166351   -1.0210051536
H        1.7887310182   -0.9737058368   -2.2449391992
H        2.4710351631   -0.5597938981   -0.7782759071
H        0.4160287288    1.9228369006    1.6288816169
H        0.1346164983    2.7501680526    0.1952898737
H        1.6731214074    2.8333233850    0.9235610110
12   
torsion grid (-150,)
C        0.1299654065   -0.7416670019   -0.7606745258
N       -0.0326044134    0.4073598515   -0.1361583725
N        1.7139285116   -1.0847864730   -1.2183230538
N        0.8504315910    2.2496943849    0.7126731029
O       -0.6309728755   -1.6092240018   -1.0883705773
O        1.2740172428    1.1294655182   -0.0126765460
H        1.7576274599   -2.1095171857   -1.2245522958
H        1.8602337068   -0.7571004061   -2.1785571723
H        2.4596298709   -0.7080139004   -0.6248399535
H        0.4417066293    1.9403680906    1.6117682836
H        0.1174659003    2.7426315457    0.1732084690
H        1.6724281336    2.8515796993    0.8619159206
12   
torsion grid (-135,)
C        0.1303988584   -0.7662431430   -0.7232803306
N       -0.0331319109    0.3871519412   -0.1064641071
N        1.7114265191   -1.0794891979   -1.2132800947
N        0.8496695059    2.2574118790    0.6801950884
O       -0.6238547941   -1.6503073197   -1.0205970133
O        1.2703962398    1.1220158071   -0.0228498715
H        1.7067914069   -2.0820631364   -1.4313524939
H        1.9373159203   -0.5623949078   -2.0690233694
H        2.4338287918   -0.8829004738   -0.5134877747
H        0.4555155654    1.9672146673    1.5920932023
H        0.1058027512    2.7326403504    0.1397925168
H        1.6696983100    2.8677536550    0.8036675267
12   
torsion grid (-120,)
C        0.1374379608   -0.7869401947   -0.6878923085
N       -0.0291311472    0.3699016087   -0.0777266445
N        1.7098295183   -1.0751512270   -1.2120107011
N        0.8446555098    2.2679116039    0.6499992642
O       -0.6091774057   -1.6881355089   -0.9521310166
O        1.2693719518    1.1179087358   -0.0261519555
H        1.6593736340   -2.0120979335   -1.6277453501
H        2.0202292698   -0.4094988069   -1.9269154627
H        2.3978961968   -1.0814881101   -0.4524156581
H        0.4565862880    1.9967744323    1.5703579101
H        0.0952199111    2.7258720608    0.1024723176
H        1.6615654763    2.8857334609    0.7555728841
12   
torsion grid (-105,)
C        0.1493129189   -0.8034174860   -0.6507124704
N       -0.0191566063    0.3561847504   -0.0465744671
N        1.7106561204   -1.0754820065   -1.2155587112
N        0.8355314596    2.2835571695    0.6239529509
O       -0.5880581177   -1.7216417341   -0.8799925510
O        1.2697894587    1.1214529441   -0.0249790522
H        1.6124743623   -1.9064746186   -1.8096168997
H        2.1095299108   -0.3083089833   -1.7656835571
H        2.3536582459   -1.2977312667   -0.4488429085
H        0.4539171819    2.0299308735    1.5519941411
H        0.0794312892    2.7212560011    0.0691042356
H        1.6467709400    2.9114644779    0.7123225685
12   
torsion grid (-90,)
C        0.1669912409   -0.8170065318   -0.6121967294
N       -0.0044787693    0.3455981637   -0.0154037697
N        1.7140731054   -1.0809248549   -1.2183784385
N        0.8224191915    2.3029678818    0.6003129947
O       -0.5610867418   -1.7500676927   -0.8092185322
O        1.2705423321    1.1326458767   -0.0241189770
H        1.5713008915   -1.7658655206   -1.9686800941
H        2.2074407085   -0.2619621239   -1.5873513772
H        2.2945142259   -1.5202303578   -0.4966171299
H        0.4511130257    2.0642261970    1.5364671271
H        0.0562030124    2.7169060830    0.0411534536
H        1.6248249411    2.9445030009    0.6694447518
12   
torsion grid (-75,)
C        0.1858900471   -0.8295343920   -0.5749116996
N        0.0087542741    0.3400112871    0.0057186614
N        1.7200728741   -1.0903242139   -1.2150979279
N        0.8081639560    2.3228474366    0.5781119275
O       -0.5324051666   -1.7759281263   -0.7419806269
O        1.2664033070    1.1522790535   -0.0384338068
H        1.5491865512   -1.5936980257   -2.0921026172
H        2.3088772930   -0.2711522351   -1.3955303327
H        2.2161466880   -1.7291704180   -0.5853317043
H        0.4629960602    2.0916494069    1.5260764436
H        0.0213717205    2.7121093533    0.0298576039
H        1.5983995593    2.9817009949    0.6190373580
12   
torsion grid (-60,)
C        0.2018525357   -0.8408163394   -0.5412074101
N        0.0156000129    0.3389448791    0.0146080453
N        1.7272858287   -1.1004885997   -1.2021098577
N        0.7955731169    2.3382839195    0.5541517310
O       -0.5066400240   -1.7991556244   -0.6799226284
O        1.2525974432    1.1772612369   -0.0807194045
H        1.5593601854   -1.3932091429   -2.1701930421
H        2.4030970296   -0.3300604046   -1.1897478741
H        2.1194085291   -1.9058531370   -0.7035962920
H        0.5021802964    2.1044136171    1.5187163078
H       -0.0261268322    2.7042047808    0.0421185218
H        1.5696690419    3.0172649359    0.5533151821
12   
torsion grid (-45,)
C        0.2128258800   -0.8557741567   -0.5078702363
N        0.0151199309    0.3364217296    0.0172918599
N        1.7321075779   -1.1063537824   -1.1834023044
N        0.7874901776    2.3469595217    0.5255258121
O       -0.4850343450   -1.8259481124   -0.6153446313
O        1.2309119433    1.1968952994   -0.1384594345
H        1.6029949232   -1.1674358278   -2.1984947778
H        2.4697794094   -0.4251866473   -0.9777077289
H        2.0178837405   -2.0337910190   -0.8524407829
H        0.5548946221    2.1076950736    1.5051784532
H       -0.0700211541    2.6943159558    0.0614692286
H        1.5449044581    3.0429920868    0.4796678214
12   
torsion grid (-30,)
C        0.2221457586   -0.8761122728   -0.4664298500
N        0.0181189779    0.3230614139    0.0411069357
N        1.7322490571   -1.1040658663   -1.1702690608
N        0.7812005674    2.3509788893    0.4907365284
O       -0.4632106740   -1.8580116785   -0.5427379404
O        1.2179851821    1.1955421127   -0.1685667554
H        1.6618573476   -0.9194366350   -2.1761252608
H        2.5093801674   -0.5570906214   -0.7865146327
H        1.9192120920   -2.1047466046   -1.0445893192
H        0.5810808469    2.1250235654    1.4806710717
H       -0.0942445087    2.6804272245    0.0476535753
H        1.5280823494    3.0552205942    0.4104779873
12   
torsion grid (-15,)
C        0.2333694743   -0.8968534362   -0.4216540237
N        0.0266214374    0.3056672893    0.0773579867
N        1.7298296636   -1.0977424386   -1.1651228393
N        0.7730796164    2.3542370768    0.4547722200
O       -0.4360712057   -1.8914932169   -0.4642079314
O        1.2135198632    1.1850615493   -0.1772015581
H        1.7346360272   -0.6803870505   -2.1013249417
H        2.5301549132   -0.7319228548   -0.6398007811
H        1.8203798645   -2.1153016882   -1.2612755405
H        0.5860629928    2.1527802098    1.4525572993
H       -0.1103739737    2.6641330134    0.0135602241
H        1.5126484907    3.0626116679    0.3477531646
12   
torsion grid (0,)
C        0.2494205859   -0.9129590185   -0.3798365286
N        0.0397377937    0.2921680507    0.1117847133
N        1.7281365646   -1.0943339268   -1.1651074308
N        0.7607046717    2.3613622119    0.4221573979
O       -0.4013625227   -1.9206528049   -0.3849696775
O        1.2122147225    1.1801519502   -0.1788024504
H        1.8282930595   -0.4844027276   -1.9826697235
H        2.5331234460   -0.9467879094   -0.5481492589
H        1.7190960573   -2.0722894138   -1.4760608390
H        0.5803460070    2.1838338982    1.4257201773
H       -0.1280899395    2.6501562970   -0.0225750677
H        1.4922367177    3.0745435142    0.2939219669
12   
torsion grid (15,)
C        0.2733366286   -0.9230266388   -0.3403295879
N        0.0590782565    0.2844257226    0.1433730642
N        1.7282498824   -1.0967293940   -1.1682958710
N        0.7433957417    2.3736924330    0.3943410376
O       -0.3584794290   -1.9423027075   -0.3063219759
O        1.2124542804    1.1857649217   -0.1793882033
H        1.9431892573   -0.3476068838   -1.8338213127
H        2.5137132101   -1.1905386799   -0.5164283665
H        1.6171667395   -1.9822678821   -1.6746097986
H        0.5726109291    2.2169178873    1.4030279922
H       -0.1530006888    2.6367612445   -0.0510823012
H        1.4621423561    3.0957000983    0.2449486023
12   
torsion grid (30,)
C        0.3037352606   -0.9295448562   -0.3008868044
N        0.0838998786    0.2797660192    0.1750065713
N        1.7325672492   -1.1038910817   -1.1703011247
N        0.7211536058    2.3899811142    0.3694113295
O       -0.3106305225   -1.9579519128   -0.2331480467
O        1.2113780093    1.1998033895   -0.1816356774
H        2.0789478128   -0.2746696645   -1.6630411898
H        2.4656916460   -1.4456338029   -0.5405954481
H        1.5254735295   -1.8462668567   -1.8471337511
H        0.5609302111    2.2506304751    1.3824134600
H       -0.1834309072    2.6255249721   -0.0747951300
H        1.4241413904    3.1230423260    0.2001190902
12   
torsion grid (45,)
C        0.3328150870   -0.9343655431   -0.2641804235
N        0.1025199778    0.2789617471    0.1951832135
N        1.7415276571   -1.1121423691   -1.1648882249
N        0.6988280048    2.4047103266    0.3459505606
O       -0.2640512013   -1.9707103187   -0.1665205061
O        1.1979791239    1.2184048094   -0.2051160827
H        2.2242554002   -0.2639074088   -1.4778259983
H        2.3859928130   -1.6799835596   -0.6053930470
H        1.4650394138   -1.6710655343   -1.9788307825
H        0.5696942904    2.2746980586    1.3646516891
H       -0.2222245313    2.6164075534   -0.0758480134
H        1.3814811282    3.1497823599    0.1482308943
12   
torsion grid (60,)
C        0.3536502843   -0.9402479894   -0.2327653381
N        0.1053821114    0.2799247088    0.1973494515
N        1.7534813487   -1.1172683610   -1.1494470267
N        0.6810582815    2.4129724561    0.3219497635
O       -0.2244289056   -1.9840335299   -0.1064565472
O        1.1650877556    1.2345297970   -0.2584764403
H        2.3587637632   -0.3006018305   -1.2802985083
H        2.2842916009   -1.8676967479   -0.6953908699
H        1.4514496102   -1.4677170912   -2.0642423277
H        0.6142929731    2.2841316790    1.3467469745
H       -0.2666815001    2.6077066528   -0.0455109354
H        1.3375098405    3.1690903773    0.0819550830
12   
torsion grid (75,)
C        0.3706902437   -0.9505898737   -0.1992880701
N        0.1077370482    0.2749618873    0.2071893180
N        1.7607339679   -1.1165826996   -1.1329859374
N        0.6679990868    2.4143433387    0.2936924692
O       -0.1901520092   -2.0001461841   -0.0462895702
O        1.1371755997    1.2368815609   -0.3011179362
H        2.4625365600   -0.3714196951   -1.0830423601
H        2.1736096658   -2.0023195817   -0.8219742087
H        1.4685866573   -1.2388953634   -2.1079262749
H        0.6555616359    2.2961266925    1.3218070784
H       -0.3001802820    2.5912119194   -0.0265827157
H        1.2995589896    3.1772181200    0.0119314866
12   
torsion grid (90,)
C        0.3887566095   -0.9622825164   -0.1613253461
N        0.1159975131    0.2664658371    0.2298185251
N        1.7614925089   -1.1116131845   -1.1225056736
N        0.6562480756    2.4115055571    0.2629490577
O       -0.1533425220   -2.0171966449    0.0197909263
O        1.1247583608    1.2280978533   -0.3205126159
H        2.5398001961   -0.4793125284   -0.9111159339
H        2.0571648517   -2.0836931077   -0.9806651857
H        1.5031129232   -1.0012496329   -2.1083558213
H        0.6707679381    2.3137860641    1.2931585270
H       -0.3218338066    2.5701899674   -0.0360919516
H        1.2709345155    3.1760924571   -0.0497312290
12   
torsion grid (105,)
C        0.4087538300   -0.9733790884   -0.1231464808
N        0.1318469782    0.2570505586    0.2607907487
N        1.7585206801   -1.1064634630   -1.1187774652
N        0.6428232520    2.4094838962    0.2325641590
O       -0.1122502630   -2.0333665266    0.0875729237
O        1.1222740609    1.2180405402   -0.3249020829
H        2.5964203214   -0.6269010843   -0.7749223992
H        1.9343169221   -2.1168290123   -1.1555298699
H        1.5584102103   -0.7762497985   -2.0683112587
H        0.6662624531    2.3363076822    1.2646594909
H       -0.3394378977    2.5492687164   -0.0621213352
H        1.2459166164    3.1738277009   -0.1024631513
12   
torsion grid (120,)
C        0.4321745392   -0.9800272231   -0.0884748315
N        0.1514334392    0.2513988249    0.2898165938
N        1.7554764006   -1.1046800540   -1.1197434097
N        0.6259680688    2.4108603272    0.2057229472
O       -0.0652150619   -2.0445144835    0.1541771239
O        1.1220302566    1.2143826127   -0.3257227718
H        2.6331815103   -0.8106738337   -0.6796025325
H        1.8066973712   -2.1081064086   -1.3289374565
H        1.6401934708   -0.5846228269   -1.9953636507
H        0.6530919954    2.3598961719    1.2390835849
H       -0.3589334011    2.5306370688   -0.0888882410
H        1.2177585745    3.1762399457   -0.1466540770
12   
torsion grid (135,)
C        0.4583780815   -0.9811110008   -0.0561882086
N        0.1739166980    0.2512971113    0.3149945673
N        1.7564083562   -1.1085815778   -1.1223684308
N        0.6046554583    2.4176089520    0.1823263430
O       -0.0157177884   -2.0487336790    0.2163556155
O        1.1212396255    1.2196783540   -0.3261130014
H        2.6479166922   -1.0275315899   -0.6230160430
H        1.6771802093   -2.0621481988   -1.4927264966
H        1.7545105594   -0.4374024372   -1.8967949059
H        0.6342023728    2.3859724019    1.2164157352
H       -0.3824446401    2.5157812569   -0.1128439307
H        1.1836115391    3.1859605287   -0.1846279650
12   
torsion grid (150,)
C        0.4911941938   -0.9783187564   -0.0258925473
N        0.2006972646    0.2543052130    0.3387467936
N        1.7604520177   -1.1148874217   -1.1242757336
N        0.5796030989    2.4268026869    0.1622559026
O        0.0388853193   -2.0480887925    0.2742335475
O        1.1178795259    1.2317011152   -0.3301467022
H        2.6327689670   -1.2627970971   -0.6065704538
H        1.5522395506   -1.9744430586   -1.6437303288
H        1.8934962973   -0.3366780058   -1.7776818528
H        0.6196147887    2.4131604929    1.1964032652
H       -0.4119803123    2.4992371117   -0.1251924556
H        1.1390064523    3.2007966337   -0.2227361558
12   
torsion grid (165,)
C        0.5267643939   -0.9756233849    0.0031962115
N        0.2239669670    0.2572816955    0.3561040348
N        1.7687561186   -1.1205182139   -1.1211226442
N        0.5535732904    2.4353677207    0.1435757811
O        0.0967782132   -2.0471591759    0.3298999151
O        1.1031434553    1.2448243488   -0.3472434080
H        2.5845273406   -1.4946237501   -0.6257025138
H        1.4473058556   -1.8424308725   -1.7745292026
H        2.0477315074   -0.2820390489   -1.6403215241
H        0.6162497760    2.4341385846    1.1767281188
H       -0.4450650985    2.4865549592   -0.1231635251
H        1.0901253442    3.2150172586   -0.2620079646
12   
torsion grid (180,)
C        0.5529833486   -0.9739871291    0.0302465149
N        0.2284263121    0.2599103362    0.3581256486
N        1.7833764629   -1.1237911650   -1.1089166283
N        0.5317221649    2.4394839342    0.1239467728
O        0.1459276676   -2.0465227382    0.3814996282
O        1.0651219817    1.2512435898   -0.3894349230
H        2.5057902852   -1.7002878295   -0.6654194917
H        1.3849314835   -1.6718663846   -1.8781844936
H        2.2097066464   -0.2701343074   -1.4829591331
H        0.6488415221    2.4469609074    1.1523060037
H       -0.4800977525    2.4782523346   -0.0901821757
H        1.0371270412    3.2215285730   -0.3156144438
