26
0 1 C11H12N2O
C                     1.537866218204    -2.352151208643    -0.281185835789
C                     1.548228248837    -0.954489402301    -0.213486348400
C                     2.667376252090    -3.059598188388     0.119794808862
C                     2.682146085466    -0.286848661664     0.240493219561
C                     3.829903181471    -2.409105101882     0.573260773297
C                     3.834382005088    -0.993347054217     0.632467225752
C                     4.999725750053    -3.217328060450     1.011512130911
C                     6.251184031833    -0.477893525328     0.745059509435
C                     6.487055809227    -1.744697348247    -0.065893775994
C                     4.732121035705    -4.463657556704     1.824593491909
C                     4.682064094265     0.960048334814     1.914479379452
N                     6.222073083289    -2.926874881756     0.747205328316
N                     4.936055190400    -0.261884303409     1.142725737295
O                     7.149853557074     0.294606357239     1.054071652588
H                     0.659122262861    -2.881259112974    -0.638608512494
H                     0.675971556297    -0.383110023324    -0.519483626106
H                     2.656610919629    -4.144222299992     0.076444796976
H                     2.682817981771     0.797191026628     0.281285162352
H                     5.861906368742    -1.717088850224    -0.970571420531
H                     7.536171230394    -1.741074452893    -0.360172789501
H                     4.227320812461    -5.229857849166     1.225498842822
H                     4.084646365425    -4.243969732946     2.680005251435
H                     5.681307981811    -4.871645010342     2.174573042432
H                     5.529355989333     1.125266318412     2.579264605774
H                     3.770313038496     0.829915615216     2.499584466958
H                     4.582961982336     1.841057771881     1.270059675668
