
  -OEChem-12122420523D

 26 27  0     0  0  0  0  0  0999 V2000
    1.5379   -2.3522   -0.2812 C   0  0  0  0  0  0  0  0  0  0  0  0
    1.5482   -0.9545   -0.2135 C   0  0  0  0  0  0  0  0  0  0  0  0
    2.6674   -3.0596    0.1198 C   0  0  0  0  0  0  0  0  0  0  0  0
    2.6821   -0.2868    0.2405 C   0  0  0  0  0  0  0  0  0  0  0  0
    3.8299   -2.4091    0.5733 C   0  0  0  0  0  0  0  0  0  0  0  0
    3.8344   -0.9933    0.6325 C   0  0  0  0  0  0  0  0  0  0  0  0
    4.9997   -3.2173    1.0115 C   0  0  0  0  0  0  0  0  0  0  0  0
    6.2512   -0.4779    0.7451 C   0  0  0  0  0  0  0  0  0  0  0  0
    6.4871   -1.7447   -0.0659 C   0  0  0  0  0  0  0  0  0  0  0  0
    4.7321   -4.4637    1.8246 C   0  0  0  0  0  0  0  0  0  0  0  0
    4.6821    0.9600    1.9145 C   0  0  0  0  0  0  0  0  0  0  0  0
    6.2221   -2.9269    0.7472 N   0  0  0  0  0  0  0  0  0  0  0  0
    4.9361   -0.2619    1.1427 N   0  0  0  0  0  0  0  0  0  0  0  0
    7.1499    0.2946    1.0541 O   0  0  0  0  0  0  0  0  0  0  0  0
    0.6591   -2.8813   -0.6386 H   0  0  0  0  0  0  0  0  0  0  0  0
    0.6760   -0.3831   -0.5195 H   0  0  0  0  0  0  0  0  0  0  0  0
    2.6566   -4.1442    0.0764 H   0  0  0  0  0  0  0  0  0  0  0  0
    2.6828    0.7972    0.2813 H   0  0  0  0  0  0  0  0  0  0  0  0
    5.8619   -1.7171   -0.9706 H   0  0  0  0  0  0  0  0  0  0  0  0
    7.5362   -1.7411   -0.3602 H   0  0  0  0  0  0  0  0  0  0  0  0
    4.2273   -5.2299    1.2255 H   0  0  0  0  0  0  0  0  0  0  0  0
    4.0846   -4.2440    2.6800 H   0  0  0  0  0  0  0  0  0  0  0  0
    5.6813   -4.8716    2.1746 H   0  0  0  0  0  0  0  0  0  0  0  0
    5.5294    1.1253    2.5793 H   0  0  0  0  0  0  0  0  0  0  0  0
    3.7703    0.8299    2.4996 H   0  0  0  0  0  0  0  0  0  0  0  0
    4.5830    1.8411    1.2701 H   0  0  0  0  0  0  0  0  0  0  0  0
  1  2  1  0  0  0  0
  1  3  2  0  0  0  0
  1 15  1  0  0  0  0
  2  4  2  0  0  0  0
  2 16  1  0  0  0  0
  3  5  1  0  0  0  0
  3 17  1  0  0  0  0
  4  6  1  0  0  0  0
  4 18  1  0  0  0  0
  5  6  2  0  0  0  0
  5  7  1  0  0  0  0
  6 13  1  0  0  0  0
  7 10  1  0  0  0  0
  7 12  2  0  0  0  0
  8  9  1  0  0  0  0
  8 13  1  0  0  0  0
  8 14  2  0  0  0  0
  9 12  1  0  0  0  0
  9 19  1  0  0  0  0
  9 20  1  0  0  0  0
 10 21  1  0  0  0  0
 10 22  1  0  0  0  0
 10 23  1  0  0  0  0
 11 13  1  0  0  0  0
 11 24  1  0  0  0  0
 11 25  1  0  0  0  0
 11 26  1  0  0  0  0
M  END
$$$$
