27
0 1 C14FH11O
C                     2.111750939059    -0.844752056128    -0.024931020091
C                     7.742993427926    -2.417184452532     2.485007439299
C                     0.849008360728    -0.571236681050     0.507180425295
C                     8.154539963439    -1.149426152678     2.054961365928
C                     3.134604126069    -1.248850649947     0.830137171131
C                     6.404186229403    -2.640198641902     2.802141971084
C                     0.622711510492    -0.716337511433     1.878712191239
C                     7.227935638923    -0.109724847006     1.946910073601
C                     2.909436635252    -1.411278033400     2.208139377334
C                     5.445396193328    -1.621338133989     2.673200207134
C                     1.628815355058    -1.149197611624     2.753064203279
C                     5.895212025658    -0.364920858483     2.254878520541
C                     4.021700016535    -1.926833936911     3.057375374223
C                     1.311409884541    -1.299338077048     4.222446106082
O                     3.818365837670    -2.640533716912     4.036590153058
F                     5.020159822208     0.668374413088     2.172962914933
H                     2.298438250647    -0.737710783176    -1.089915306908
H                     8.464929798293    -3.223484677455     2.576542084277
H                     0.041411244172    -0.241559411097    -0.141744878473
H                     9.197430355570    -0.964835451782     1.812236833615
H                     4.119257327891    -1.459487045686     0.423074184788
H                     6.069375533040    -3.610695802995     3.155884050952
H                    -0.361438311509    -0.490976542844     2.282735557225
H                     7.519887013552     0.889982149976     1.640108568245
H                     1.242396370760    -2.354165627531     4.501556556477
H                     2.089320799882    -0.864517094827     4.855294979730
H                     0.360020090126    -0.812330093403     4.454089757563
