26
0 1 C13H12O
C                    -0.947191561722    -3.319854610403     6.072796012819
C                     2.179551123580    -1.242939163701    -0.216746773240
C                    -0.373929915283    -2.175398008536     6.642364372752
C                    -0.812586029961    -3.540020037760     4.699661549024
C                     1.084105554980    -0.431694190502     0.092601677906
C                     2.925275782310    -1.831310666334     0.810472094007
C                     0.328013901935    -1.265639696557     5.851477825826
C                    -0.114531284234    -2.634800716847     3.891667295555
C                     0.737587897644    -0.219850508708     1.430502861543
C                     2.599332000456    -1.632565448738     2.159116686293
C                     0.456135504710    -1.499079428409     4.476600146463
C                     1.489510851377    -0.819416485352     2.439368132715
C                     3.398627432557    -2.258365189806     3.274383269957
O                     1.156658719247    -0.544559561376     3.763997387863
H                    -1.490972258913    -4.027869603674     6.691804753949
H                     2.457939501088    -1.413184828226    -1.253358049133
H                    -0.471048633984    -1.990766762082     7.709198816559
H                    -1.254469358318    -4.422688366006     4.244173402671
H                     0.502545166311     0.033749737140    -0.698573842112
H                     3.782750936074    -2.453455041733     0.563728455488
H                     0.781977869752    -0.375343670411     6.276874347137
H                    -0.017707105569    -2.810282378201     2.825472314781
H                    -0.107487729181     0.404363203591     1.706375557050
H                     3.651949394692    -1.517597439843     4.038806781142
H                     2.829775737320    -3.049539027040     3.775332506594
H                     4.324403187271    -2.695630923114     2.891887504956
