15   
torsion grid (-165,)
C        0.9147495405    2.0643453932   -1.9089521156
C        2.2594879438    1.6668953115   -1.2950183192
C        2.3319544487    0.2938977441   -0.6572074832
C        3.5300241780    0.0728780002    0.2357190792
C        1.4069300290   -0.6590275887   -0.8404712636
H        0.9585445570    3.0884408342   -2.2939746213
H        0.6404827507    1.4111669829   -2.7437674397
H        0.1124024088    2.0153006834   -1.1656832138
H        2.5361864103    2.4082748014   -0.5324259923
H        3.0502160714    1.7350931207   -2.0563243831
H        3.5063364223    0.7607553304    1.0905446987
H        3.5688424794   -0.9499185911    0.6203902325
H        4.4656529105    0.2724083173   -0.3026140244
H        1.5009572730   -1.6333388245   -0.3661541601
H        0.5296329999   -0.5050649505   -1.4619930582
15   
torsion grid (-150,)
C        0.9632186307    2.1818268520   -1.7887831931
C        2.3396113389    1.6477872326   -1.3768052209
C        2.3535110144    0.2735128745   -0.7297675625
C        3.4647758972    0.0460359276    0.2666892369
C        1.4422629044   -0.6736546403   -0.9938236525
H        1.0487258075    3.2017807219   -2.1784066883
H        0.5047990494    1.5704943206   -2.5724958569
H        0.2796215353    2.1974691854   -0.9339342401
H        2.7959151267    2.3587493717   -0.6757276477
H        3.0102549509    1.6325935000   -2.2476809624
H        3.3609379990    0.7297706215    1.1189860736
H        3.4702884539   -0.9791710845    0.6471353780
H        4.4454588032    0.2510108531   -0.1823042670
H        1.4891942157   -1.6499203043   -0.5166005384
H        0.6222810321   -0.5125708352   -1.6882330313
15   
torsion grid (-135,)
C        0.9833598245    2.2812584966   -1.6776398647
C        2.3650204899    1.6516698335   -1.4498788153
C        2.3462776878    0.2936301645   -0.7617980454
C        3.3547429930    0.1087101607    0.3454115772
C        1.4923164508   -0.6807124036   -1.1059414502
H        1.0804857415    3.2723547227   -2.1341724101
H        0.3638663824    1.6710443212   -2.3417163298
H        0.4456423429    2.3911533504   -0.7302899599
H        2.9704281914    2.3405543705   -0.8487907564
H        2.8898823773    1.5587842110   -2.4100967119
H        3.1800254463    0.8345402856    1.1502983745
H        3.3148088106   -0.8968098616    0.7735749236
H        4.3744893689    0.2866193114   -0.0204005408
H        1.5036224801   -1.6465376749   -0.6059985212
H        0.7560527817   -0.5518521196   -1.8955624251
15   
torsion grid (-120,)
C        1.0079147131    2.2977729662   -1.5486304875
C        2.3839010179    1.6124707623   -1.5103122416
C        2.3800999814    0.2751006508   -0.7812906523
C        3.2855662326    0.1709982921    0.4206783006
C        1.6222154691   -0.7526425092   -1.1888881986
H        1.0666493122    3.2644936266   -2.0611140305
H        0.2731617551    1.6808056063   -2.0743479968
H        0.6293173232    2.4712368967   -0.5355646539
H        3.1050150031    2.2837234183   -1.0304108749
H        2.7415999077    1.4656272350   -2.5368996177
H        3.0340584606    0.9382394394    1.1647603393
H        3.2195022498   -0.8092268700    0.9011508262
H        4.3309203437    0.3442437877    0.1339432795
H        1.6214972626   -1.7049513679   -0.6636214567
H        0.9770196528   -0.6776638284   -2.0619575033
15   
torsion grid (-105,)
C        2.6357893554    1.9824233532   -1.4464263523
C        1.7848422098    0.6995120727   -1.4578454840
C        2.3400592512   -0.3783637386   -0.5401752826
C        3.0402813330   -1.5323320095   -1.2137708229
C        2.2083152092   -0.3031091831    0.7915832719
H        2.2285770337    2.7310974191   -2.1351869955
H        2.6649687470    2.4184443524   -0.4434085624
H        3.6686101112    1.7729815758   -1.7464218847
H        1.7213663044    0.3145728514   -2.4821175508
H        0.7617718171    0.9493216833   -1.1543937773
H        3.8490512552   -1.1747251775   -1.8645429301
H        3.4664702004   -2.2329442776   -0.4902596878
H        2.3416357313   -2.0832300246   -1.8564075635
H        2.6211945602   -1.0627889026    1.4513964512
H        1.6829241392    0.5240120081    1.2658061801
15   
torsion grid (-90,)
C        2.6776563921    1.9463696277   -1.5384124596
C        1.7213274928    0.7502389522   -1.3734447966
C        2.3022051035   -0.3363700855   -0.4889478880
C        3.1081207978   -1.4035672245   -1.1884961233
C        2.1068657190   -0.3433956825    0.8371967887
H        2.2493743016    2.7023296004   -2.2059080548
H        2.8756293829    2.4151055063   -0.5696447346
H        3.6395740429    1.6341550061   -1.9599540505
H        1.4833631460    0.3352721411   -2.3606172709
H        0.7783551420    1.1075895561   -0.9452913117
H        3.9100777623   -0.9619870095   -1.7938369594
H        3.5607046911   -2.1043622474   -0.4815319846
H        2.4717415202   -1.9730527819   -1.8777614952
H        2.5442205067   -1.1069287439    1.4767423869
H        1.5032653183    0.4189509970    1.3263147101
15   
torsion grid (-75,)
C        2.6771123803    1.9211304882   -1.6599054796
C        1.6610321242    0.8195899659   -1.3041723700
C        2.2561955492   -0.2867863490   -0.4583895799
C        3.1575081315   -1.2666711233   -1.1708344575
C        1.9933426814   -0.3886043729    0.8523798081
H        2.2050534089    2.7048471253   -2.2622273893
H        3.0783207188    2.3827233278   -0.7519113689
H        3.5202288765    1.5245505143   -2.2351166650
H        1.2566697563    0.3917591996   -2.2313693020
H        0.8178967172    1.2710649101   -0.7704539696
H        4.0042848777   -0.7583371896   -1.6476574378
H        3.5571036122   -2.0206146506   -0.4872096024
H        2.6097538942   -1.7829521463   -1.9695521761
H        2.4318001369   -1.1736570455    1.4647862753
H        1.3303195409    0.3126318186    1.3552087943
15   
torsion grid (-60,)
C        2.6787380422    1.8649647281   -1.7730737285
C        1.6424037452    0.8664638370   -1.2276673042
C        2.2444468912   -0.2653136750   -0.4220630034
C        3.2330143283   -1.1560018792   -1.1365274013
C        1.9140946319   -0.4660270534    0.8619044301
H        2.1818355005    2.6832061559   -2.3049345862
H        3.2690132908    2.2986807164   -0.9586448044
H        3.3714944462    1.3892770879   -2.4743443781
H        1.0854774776    0.4409767489   -2.0747851295
H        0.9128409928    1.4003648813   -0.6097555715
H        4.1368610172   -0.6028155027   -1.4175972781
H        3.5363402212   -2.0008134896   -0.5123135360
H        2.8028560698   -1.5512206929   -2.0657925993
H        2.3403840010   -1.2824982425    1.4410547021
H        1.2045971414    0.1801508468    1.3746308219
15   
torsion grid (-45,)
C        2.6778474296    1.8038972414   -1.8164758300
C        1.6139296622    0.9437922321   -1.1155886154
C        2.1583157109   -0.2613296626   -0.3736806889
C        3.1947924965   -1.0972202850   -1.0859280742
C        1.7418362035   -0.5646117529    0.8643256919
H        2.2133842213    2.6755482565   -2.2892869309
H        3.4270144224    2.1673422418   -1.1041344137
H        3.2010282484    1.2450343167   -2.5982999658
H        0.9071171464    0.5867565764   -1.8794201299
H        1.0324678540    1.5610111780   -0.4229819672
H        4.1233826345   -0.5338744204   -1.2333530736
H        3.4346032816   -2.0019156177   -0.5207981793
H        2.8458649228   -1.3968602819   -2.0827667341
H        2.1130186226   -1.4393884164    1.3940485805
H        1.0115372209    0.0505922947    1.3860334180
15   
torsion grid (-30,)
C        2.8095972234    1.6785877165   -1.9402798474
C        1.7685762556    0.9436638860   -1.0834325081
C        2.2629237392   -0.3079595468   -0.3736291660
C        3.3680360924   -1.1007641804   -1.0292091494
C        1.7435758642   -0.6803442598    0.8053528290
H        2.3629101530    2.5660030296   -2.4006504331
H        3.6647569177    2.0100432563   -1.3404659859
H        3.1916393936    1.0461163901   -2.7470577723
H        0.9389873286    0.6513431565   -1.7440449751
H        1.3389305089    1.6286822005   -0.3453563359
H        4.2880018259   -0.5098051219   -1.1024131087
H        3.5916816829   -2.0094136553   -0.4638829480
H        3.0994007382   -1.3929959380   -2.0527270667
H        2.0692041451   -1.5853277127    1.3134767875
H        0.9687246995   -0.0949191130    1.2967768443
15   
torsion grid (-15,)
C        2.7453544003    1.5927109081   -2.0040745622
C        1.7792827497    0.9394251992   -1.0066382915
C        2.2623961643   -0.3461171586   -0.3381475889
C        3.4530098729   -1.0633698101   -0.9281012557
C        1.6481741875   -0.8117121205    0.7592440809
H        2.2936303981    2.4945257566   -2.4303061383
H        3.6857583970    1.8895622322   -1.5270720130
H        2.9888693713    0.9229403873   -2.8343435448
H        0.8464557607    0.7127437219   -1.5409261929
H        1.5083976846    1.6625040397   -0.2298622355
H        4.3418328020   -0.4223353077   -0.9317990630
H        3.6875514825   -1.9675222730   -0.3600653222
H        3.2720729514   -1.3549918019   -1.9704009833
H        1.9631544746   -1.7327700206    1.2442309785
H        0.8037719957   -0.2882650767    1.2046128271
15   
torsion grid (0,)
C        2.5943743845    1.6725087691   -2.1019972121
C        1.7373561360    1.1209851185   -0.9551293916
C        2.1879226839   -0.2061644689   -0.3407431776
C        3.4233560004   -0.8808508408   -0.8876279389
C        1.4913800084   -0.7530806361    0.6661636841
H        2.1778711603    2.6196633320   -2.4603864459
H        3.6247845727    1.8656317799   -1.7868109567
H        2.6289980225    0.9861235576   -2.9540928620
H        0.7067762363    1.0048163747   -1.3115536403
H        1.6919783673    1.8729805146   -0.1581891208
H        4.3068920472   -0.2384915741   -0.7928115926
H        3.6257802257   -1.8155343079   -0.3579760664
H        3.3163423477   -1.1111134459   -1.9542741165
H        1.7876385076   -1.6947951109    1.1222036793
H        0.5994991297   -0.2743388622    1.0675253912
15   
torsion grid (15,)
C        2.2757835831    1.9487292129   -2.1858998938
C        1.6119441502    1.4516903368   -0.8946820520
C        2.0646778825    0.0859082796   -0.3822845126
C        3.3315511476   -0.5127364111   -0.9450748602
C        1.3378148958   -0.5691588685    0.5347152896
H        1.8881187836    2.9375829401   -2.4521438900
H        3.3608863567    2.0390044018   -2.0780107836
H        2.0782597520    1.2794659567   -3.0303407860
H        0.5241327216    1.4396563804   -1.0217399589
H        1.8116603944    2.1914274771   -0.1073382546
H        4.1970995751    0.1390453985   -0.7713745274
H        3.5428834339   -1.4837801538   -0.4894726249
H        3.2576302428   -0.6532348297   -2.0293926792
H        1.6471285067   -1.5352853610    0.9267571275
H        0.4109964034   -0.1553058781    0.9285450502
15   
torsion grid (30,)
C        2.0667494884    2.0816345324   -2.2602310397
C        1.5458635914    1.6459652166   -0.8829533296
C        1.9696069968    0.2580493365   -0.4259154933
C        3.2993525339   -0.2685643909   -0.9097078223
C        1.1755566879   -0.4774366818    0.3658767484
H        1.7026236760    3.0854197528   -2.5027274010
H        3.1599325820    2.1117484795   -2.2904608552
H        1.7279102775    1.4046815475   -3.0526065188
H        0.4535496906    1.7146960104   -0.8559220746
H        1.9132379318    2.3717025114   -0.1423992916
H        4.1179845520    0.4190202420   -0.6602651151
H        3.5249387314   -1.2413302567   -0.4646320869
H        3.3059552109   -0.3826545495   -1.9996014091
H        1.4747322093   -1.4612010164    0.7207293484
H        0.2024758960   -0.1146604983    0.6916406822
15   
torsion grid (45,)
C        1.8911105793    2.1287120229   -2.2472540216
C        1.5507189916    1.7524866655   -0.7962087494
C        1.9243290605    0.3367976152   -0.4020825396
C        3.2900554259   -0.1553816395   -0.8178343401
C        1.0737978188   -0.4449193039    0.2788064716
H        1.5513425192    3.1460723017   -2.4676793473
H        2.9688065039    2.0939687344   -2.4334224812
H        1.4049681407    1.4507298139   -2.9577322242
H        0.4828559623    1.9081909143   -0.6113164208
H        2.0842130154    2.4468781661   -0.1300984197
H        4.0763652426    0.5420890074   -0.5008637192
H        3.5085654139   -1.1363546860   -0.3873692689
H        3.3645528445   -0.2397539521   -1.9081122739
H        1.3434000042   -1.4541960220    0.5826027681
H        0.0812586670   -0.0978047267    0.5587505488
15   
torsion grid (60,)
C        1.7907146312    2.1216922629   -2.2891787597
C        1.6573877375    1.7855794646   -0.7932800296
C        1.9693725569    0.3425354907   -0.4576228942
C        3.3574152406   -0.1479677991   -0.7949566691
C        1.0573747009   -0.4585177305    0.1120827077
H        1.5080031675    3.1630321644   -2.4762408224
H        2.8172945804    1.9902520771   -2.6453086445
H        1.1401028215    1.4797722828   -2.8928938229
H        0.6429465603    2.0228590226   -0.4560361973
H        2.3377708949    2.4363135927   -0.2254429345
H        4.1210834514    0.5073734842   -0.3566567864
H        3.5247144421   -1.1638040744   -0.4269294937
H        3.5270458421   -0.1495592342   -1.8780897117
H        1.2811963837   -1.4939420475    0.3602022219
H        0.0569927017   -0.1029034720    0.3499803461
15   
torsion grid (75,)
C        1.7137024025    2.0835760088   -2.2937672008
C        1.7842797627    1.7866685825   -0.7840630515
C        2.0379974023    0.3254554679   -0.4772107200
C        3.4454572382   -0.1737704618   -0.7006328248
C        1.0629106697   -0.4785902245   -0.0296690807
H        1.5208457433    3.1470670198   -2.4716371158
H        2.6495439569    1.8276651912   -2.8014078919
H        0.9096123465    1.5071768405   -2.7624781314
H        0.8449142217    2.0983549398   -0.3150300821
H        2.5800599523    2.3964327549   -0.3355402501
H        4.1540369263    0.3765993098   -0.0685393086
H        3.5386752048   -1.2388964521   -0.4720022382
H        3.7647760426   -0.0204485376   -1.7385723363
H        1.2394102408   -1.5320264290    0.1770060406
H        0.0547698633   -0.1073055603    0.1434508020
15   
torsion grid (90,)
C        1.6151133702    1.9182006956   -2.3052395146
C        1.9089957467    1.7143737953   -0.8070070600
C        2.1264786303    0.2553910399   -0.4540250637
C        3.5476453692   -0.2452428900   -0.5403197477
C        1.1109139590   -0.5384739402   -0.0862271645
H        1.4932065695    2.9813552064   -2.5403528562
H        2.4275253154    1.5286154215   -2.9286697050
H        0.6971774194    1.3951752294   -2.5902909961
H        1.0706956700    2.1122607897   -0.2246693034
H        2.7943836106    2.2982413984   -0.5268166393
H        4.1807989386    0.2734268759    0.1907636076
H        3.6153713764   -1.3200932457   -0.3509647465
H        3.9797781481   -0.0437721042   -1.5288642677
H        1.2604403534   -1.5914453994    0.1421857217
H        0.0941195313   -0.1587393793   -0.0045330649
15   
torsion grid (105,)
C        1.3694492896    2.0456972381   -2.2914491355
C        1.8761679451    1.8669259552   -0.8487765296
C        2.0808263582    0.4065630008   -0.4777605223
C        3.5098383062   -0.0733681464   -0.4206223888
C        1.0454102381   -0.4027442423   -0.2140602612
H        1.2560684923    3.1068200014   -2.5402336287
H        2.0657895527    1.6018530290   -3.0116550151
H        0.3999830721    1.5563507235   -2.4244630985
H        1.1559358369    2.3235382201   -0.1603364731
H        2.8175016057    2.4142804211   -0.7237021284
H        4.0650198200    0.4651849535    0.3580355092
H        3.5752333073   -1.1445434970   -0.2102158949
H        4.0282299969    0.1238194038   -1.3681904890
H        1.1877144187   -1.4523927379    0.0327685416
H        0.0191756896   -0.0403759347   -0.2381645245
15   
torsion grid (120,)
C        1.2439387456    2.0660404912   -2.2585836476
C        1.9445900226    1.8641388810   -0.9047856311
C        2.1151090089    0.4009198163   -0.5175162583
C        3.5332177217   -0.0716821898   -0.3149516578
C        1.0655146087   -0.4173531415   -0.3576136970
H        1.1663080701    3.1311765561   -2.5037289039
H        1.7978240958    1.5703737257   -3.0631039044
H        0.2332209892    1.6474512715   -2.2472845494
H        1.3748631507    2.3825946067   -0.1237638556
H        2.9278425525    2.3470416055   -0.9349077363
H        4.0216502025    0.5011333992    0.4839932308
H        3.5793247044   -1.1327007470   -0.0538581649
H        4.1296417107    0.0869736314   -1.2230710714
H        1.1928542366   -1.4619382746   -0.0829823630
H        0.0430758522   -0.0711477189   -0.4951543303
15   
torsion grid (135,)
C        1.2146686291    2.1755755642   -2.2374952135
C        2.0631104341    1.8881474150   -0.9905886304
C        2.1432679961    0.4206996119   -0.5927796719
C        3.5189418584   -0.0837989385   -0.2320669538
C        1.0695983258   -0.3814525177   -0.5642653456
H        1.2415300087    3.2421579031   -2.4861072974
H        1.5878444070    1.6129313494   -3.0993886939
H        0.1670144880    1.8975295589   -2.0883572689
H        1.6776141550    2.4682578737   -0.1414771444
H        3.0799583027    2.2601094750   -1.1639427289
H        3.9521504554    0.5101336784    0.5833638098
H        3.5035123598   -1.1322979038    0.0784185912
H        4.2010032135    0.0138158981   -1.0867377607
H        1.1497452004   -1.4247972864   -0.2677905801
H        0.0768599097   -0.0282913529   -0.8324789764
15   
torsion grid (150,)
C        1.1738653882    2.1988677468   -2.1588081678
C        2.1472305675    1.8550335446   -1.0257952030
C        2.1589503101    0.4040788056   -0.5762694403
C        3.4822830463   -0.0907158155   -0.0437753092
C        1.0899712143   -0.4007266537   -0.6587102833
H        1.2890799723    3.2459008378   -2.4585931157
H        1.3579076656    1.5690414515   -3.0350293063
H        0.1306106039    2.0581978156   -1.8589533174
H        1.9439095917    2.4913979334   -0.1528007142
H        3.1636483242    2.1209915157   -1.3441522058
H        3.8439471733    0.5497054570    0.7713372746
H        3.4156097741   -1.1159979666    0.3306178279
H        4.2473705417   -0.0596313278   -0.8301341307
H        1.1338557076   -1.4330583207   -0.3189979669
H        0.1401967980   -0.0642429728   -1.0651948315
15   
torsion grid (165,)
C        0.9798698426    2.0143205022   -2.0389077069
C        2.1720506206    1.7342638253   -1.1204981388
C        2.2958673185    0.3216613576   -0.5853346153
C        3.6423985354   -0.0137606776    0.0112257905
C        1.3082068560   -0.5830188300   -0.6436746970
H        1.0152032114    3.0449722261   -2.4069300410
H        0.9837186939    1.3444778473   -2.9048817850
H        0.0260199610    1.8844661051   -1.5172858902
H        2.1531280677    2.4259209506   -0.2656640874
H        3.1001239178    1.9740458607   -1.6580268961
H        3.9122852522    0.6984048463    0.8017935756
H        3.6601595169   -1.0203864304    0.4378178415
H        4.4290481037    0.0501183176   -0.7513783641
H        1.4389359460   -1.5856395339   -0.2427233632
H        0.3431631683   -0.3614298280   -1.0900300369
15   
torsion grid (180,)
C        0.9627296312    2.1287839665   -2.0007093330
C        2.2192284490    1.7374936739   -1.2202671967
C        2.2588945662    0.3318480585   -0.6581280672
C        3.5182316250   -0.0081621860    0.1039323667
C        1.2681500759   -0.5583289885   -0.8110449666
H        1.0420381760    3.1603582807   -2.3589656340
H        0.8159870969    1.4831331952   -2.8727763555
H        0.0661063094    2.0606156773   -1.3759543386
H        2.3647980872    2.4404844458   -0.3873006460
H        3.1029431055    1.8720805577   -1.8607005653
H        3.6581353665    0.6737586364    0.9524896648
H        3.4973530461   -1.0315479112    0.4882681970
H        4.4036481392    0.0996760630   -0.5356360668
H        1.3402501887   -1.5582835046   -0.3891616232
H        0.3580139005   -0.3266971474   -1.3563564539
