24   
torsion grid (-165,)
C       -1.7984550040   -1.0913056742    0.7912379779
C       -0.2802076735   -1.0242251501    1.0385628462
C        0.0101346064   -0.1539928200    2.2756013618
C        0.2516320819   -2.4458310704    1.2976680305
C        0.4415243735   -0.4595127128   -0.2091527060
C        0.0173238854    0.9260994684   -0.6473923669
C        0.2989300340    1.4683467828   -1.8382049884
C       -0.0691716337    2.8645031119   -2.2618145882
H       -2.0262956167   -1.7167061832   -0.0797203816
H       -2.3164156943   -1.5190774268    1.6573717597
H       -2.2222461194   -0.0989987868    0.6054138638
H        1.0882884374   -0.0782322050    2.4589856911
H       -0.3818025843    0.8622081095    2.1668819219
H       -0.4522307978   -0.5885644856    3.1691560063
H        1.3333200584   -2.4372991432    1.4762727845
H       -0.2287689557   -2.8914076078    2.1762554842
H        0.0583356611   -3.1026205037    0.4415723548
H        1.5192300681   -0.4484218822    0.0082573813
H        0.3095217856   -1.1600793776   -1.0433026758
H       -0.5051254450    1.5442486494    0.0833344728
H        0.8321198208    0.8657417685   -2.5774575372
H        0.8236765108    3.4499950298   -2.5161136825
H       -0.6066103405    3.3941318307   -1.4687936301
H       -0.7050908582    2.8543346548   -3.1562084971
24   
torsion grid (-150,)
C       -1.8081170652   -1.0279162448    0.8211219098
C       -0.3121686312   -0.9596861800    1.1771519022
C       -0.1164864099   -0.1059555086    2.4439195048
C        0.2105885621   -2.3814200368    1.4526591295
C        0.4904554859   -0.3723592683   -0.0114182820
C        0.0807184498    1.0076868673   -0.4657636480
C        0.1883010826    1.4620032366   -1.7204753553
C       -0.1467517585    2.8592446228   -2.1672531447
H       -1.9711199805   -1.6446548228   -0.0704050255
H       -2.3868157253   -1.4647864642    1.6432022303
H       -2.2156704274   -0.0331344885    0.6130797406
H        0.9462171734   -0.0127729588    2.6967406668
H       -0.5236193999    0.9034332091    2.3281407251
H       -0.6248553858   -0.5655164729    3.2991368565
H        1.2765432307   -2.3685809529    1.7090370812
H       -0.3285521602   -2.8438730134    2.2873798324
H        0.0846574251   -3.0260723149    0.5750478090
H        1.5483636489   -0.3431240244    0.2899361757
H        0.4350271749   -1.0639258420   -0.8611391148
H       -0.2549178397    1.7039569750    0.3038919227
H        0.5378870668    0.7783667989   -2.4975171310
H        0.7282473543    3.3547257383   -2.6070730360
H       -0.4987785305    3.4728862538   -1.3320080965
H       -0.9271577343    2.8535852846   -2.9388175002
24   
torsion grid (-135,)
C       -1.8205712998   -1.0477229876    0.6853853804
C       -0.3491267671   -1.0094334707    1.1338759235
C       -0.2233256065   -0.1887722516    2.4307513411
C        0.1406517624   -2.4438434784    1.4029319738
C        0.5315303235   -0.4020133256    0.0097097694
C        0.1789024407    0.9995838630   -0.4145014967
C        0.0905377393    1.4161773990   -1.6840021349
C       -0.2054257230    2.8271149900   -2.1147717043
H       -1.9365573769   -1.6388192338   -0.2306510294
H       -2.4536531483   -1.4978706468    1.4587948840
H       -2.1997795381   -0.0415506767    0.4792807805
H        0.8233954161   -0.1052430289    2.7463577572
H       -0.6226605985    0.8237836780    2.3154335422
H       -0.7801673393   -0.6678163163    3.2440971474
H        1.1882766932   -2.4505997579    1.7263744094
H       -0.4551849835   -2.9218703167    2.1889400088
H        0.0640710288   -3.0634130397    0.5018376827
H        1.5728690174   -0.4106122663    0.3655454530
H        0.4995508760   -1.0616635782   -0.8661651209
H        0.0445367888    1.7356106803    0.3796259838
H        0.2357950898    0.6876858537   -2.4846566848
H        0.6109098464    3.2343556482   -2.7248261086
H       -0.3466326801    3.4876770876   -1.2535303233
H       -1.1124513044    2.8717360332   -2.7309654636
24   
torsion grid (-120,)
C       -1.7776477443   -1.0285273994    0.5883021021
C       -0.3320427363   -0.9917007459    1.1130466707
C       -0.2702425072   -0.1483463931    2.3996137651
C        0.1336769586   -2.4244488896    1.4290199797
C        0.6122278866   -0.4063519587    0.0264608059
C        0.3218569753    1.0091230898   -0.3939995390
C        0.0120665434    1.3911581251   -1.6396005640
C       -0.2604005094    2.8065613740   -2.0707421073
H       -1.8508308220   -1.6391820760   -0.3194442367
H       -2.4531912692   -1.4580532930    1.3370841156
H       -2.1363472715   -0.0242128837    0.3421035278
H        0.7595067597   -0.0585811559    2.7658052658
H       -0.6624225351    0.8614113548    2.2422963130
H       -0.8673450327   -0.6119175935    3.1931857860
H        1.1590859666   -2.4314057265    1.8170963758
H       -0.5122850218   -2.8904733599    2.1819704057
H        0.1103686487   -3.0547256748    0.5323485680
H        1.6401721614   -0.4582203257    0.4142313332
H        0.5785541843   -1.0576121516   -0.8556598322
H        0.3940843212    1.7757151580    0.3793093007
H       -0.0556461146    0.6278245638   -2.4176833997
H        0.4425905409    3.1256470416   -2.8506452112
H       -0.1759941361    3.5044137447   -1.2318002591
H       -1.2678853449    2.9039863533   -2.4949485449
24   
torsion grid (-105,)
C       -1.9511435120   -1.1282364161    0.5686009207
C       -0.5128340289   -1.1489729780    1.1125605292
C       -0.4313252248   -0.2911907287    2.3881144823
C       -0.1161851436   -2.5974293236    1.4499293389
C        0.4751252402   -0.6172247926    0.0343080278
C        0.2892622613    0.8246622403   -0.3569257801
C       -0.2638096885    1.2441770649   -1.5023627807
C       -0.4729202051    2.6825681118   -1.8896986733
H       -2.0420090729   -1.7531342581   -0.3278958580
H       -2.6541371309   -1.5122773724    1.3167912962
H       -2.2602183041   -0.1132434088    0.3012739893
H        0.5954545806   -0.2464678755    2.7708380596
H       -0.7688640244    0.7339310255    2.2048418509
H       -1.0639725540   -0.7115831083    3.1782261943
H        0.8989675679   -2.6448279337    1.8612854190
H       -0.7983927847   -3.0289652858    2.1914162808
H       -0.1464182919   -3.2338964604    0.5577815994
H        1.4969642073   -0.7578172534    0.4128673822
H        0.3818515340   -1.2489992304   -0.8577374701
H        0.6165047792    1.5746642354    0.3653219187
H       -0.5939824901    0.4959248676   -2.2261467297
H        0.0528646613    2.9230931804   -2.8223718527
H       -0.1134986278    3.3632863348   -1.1116573383
H       -1.5357598387    2.8944961408   -2.0630927922
24   
torsion grid (-90,)
C       -1.7835802746   -1.1024714968    0.4876054865
C       -0.3799633169   -1.0707458704    1.1137821795
C       -0.3886989365   -0.1508866824    2.3478816632
C        0.0157181384   -2.4953031368    1.5424513088
C        0.6708728780   -0.5722592151    0.0778849437
C        0.5078598650    0.8570517995   -0.3747267713
C       -0.2236995780    1.2552734046   -1.4239440937
C       -0.4340168543    2.6848663736   -1.8413561416
H       -1.8106302289   -1.7616121590   -0.3883959677
H       -2.5181736365   -1.4765008699    1.2100393573
H       -2.1014373812   -0.1053829502    0.1694762625
H        0.6078454416   -0.0870293197    2.8012880683
H       -0.7062468149    0.8634647230    2.0854017117
H       -1.0789255876   -0.5300077196    3.1102815227
H        1.0050645852   -2.5068276040    2.0145758937
H       -0.7034893561   -2.9028412149    2.2622288946
H        0.0471562243   -3.1732154553    0.6813446468
H        1.6688641115   -0.7004084122    0.5159412303
H        0.6251124202   -1.2379329793   -0.7933183382
H        0.9807136138    1.6224656808    0.2433520803
H       -0.7056524093    0.4959546779   -2.0432588833
H       -0.0740232314    2.8580045687   -2.8634209562
H        0.0886139865    3.3776460492   -1.1743994882
H       -1.5002844323    2.9452499613   -1.8344444586
24   
torsion grid (-75,)
C       -1.7267007568   -1.1692798906    0.4542574448
C       -0.3381576820   -1.0840937688    1.1076074539
C       -0.4011389414   -0.1335599762    2.3168669777
C        0.0785522141   -2.4883368037    1.5831804327
C        0.7402482063   -0.5887204416    0.0981888963
C        0.5753252212    0.8197435669   -0.4268794305
C       -0.3199225676    1.2189848695   -1.3406067443
C       -0.5136829413    2.6401462850   -1.7938948027
H       -1.7110237310   -1.8146759612   -0.4322019636
H       -2.4527819021   -1.5888990467    1.1600893644
H       -2.0895772288   -0.1834564244    0.1515685496
H        0.5751400779   -0.0567318492    2.8103996595
H       -0.7054554318    0.8728728909    2.0115344411
H       -1.1234961917   -0.4928184423    3.0589436621
H        1.0595839609   -2.4669050359    2.0718499296
H       -0.6446946729   -2.8895714786    2.3023576539
H        0.1379041062   -3.1896629993    0.7425032092
H        1.7206146914   -0.6754076730    0.5810420691
H        0.7509466994   -1.2932982001   -0.7440149194
H        1.1933259266    1.5866440342    0.0439298265
H       -0.9505081082    0.4715069361   -1.8242590537
H       -0.3415718382    2.7409247733   -2.8730189778
H        0.1669647549    3.3223297608   -1.2749550354
H       -1.5412039466    2.9775041805   -1.6060472696
24   
torsion grid (-60,)
C       -1.7443338917   -1.2618477219    0.4083634422
C       -0.3664561127   -1.1197640978    1.0768037993
C       -0.4791341941   -0.1635284727    2.2778504421
C        0.0838950241   -2.5078503638    1.5726419175
C        0.7244236059   -0.6070376166    0.0913782490
C        0.5807279241    0.7901010524   -0.4800902850
C       -0.4262739720    1.2717431692   -1.2221261895
C       -0.5215956574    2.6916223119   -1.7113552060
H       -1.6845456558   -1.8561793028   -0.5111461070
H       -2.4413913744   -1.7665055795    1.0873451856
H       -2.1774972765   -0.2896279078    0.1614346728
H        0.4800589576   -0.0738544374    2.8016833605
H       -0.7825454063    0.8377217099    1.9559323947
H       -1.2208674230   -0.5269949808    2.9985448904
H        1.0607291034   -2.4558732020    2.0671763211
H       -0.6337317578   -2.9180212477    2.2922433231
H        0.1661957388   -3.2178695639    0.7411745077
H        1.6888543673   -0.6653362701    0.6081362021
H        0.7861443832   -1.3309334798   -0.7335224280
H        1.3658423486    1.4950476618   -0.1995969350
H       -1.2292301649    0.6070422507   -1.5373691143
H       -0.5541067274    2.7331803150   -2.8075703292
H        0.3296597353    3.2904811054   -1.3725776522
H       -1.4399708327    3.1726382606   -1.3506867586
24   
torsion grid (-45,)
C       -1.7806213331   -1.4669088347    0.3290634348
C       -0.4263651347   -1.2040139584    1.0153649639
C       -0.6159830198   -0.2137010121    2.1774243121
C        0.0914653338   -2.5445030673    1.5760162894
C        0.6534669043   -0.6815798317    0.0256217873
C        0.5515313583    0.7188267033   -0.5495587625
C       -0.5145924741    1.3525709103   -1.0566535372
C       -0.4851184862    2.7539450447   -1.6056546495
H       -1.6570460651   -2.0712584189   -0.5771047239
H       -2.4480137197   -2.0126969308    1.0061103754
H       -2.2917385312   -0.5419278474    0.0532819062
H        0.3297903863   -0.0414690284    2.7049137142
H       -0.9800759509    0.7537991022    1.8200929611
H       -1.3384718121   -0.6027754986    2.9043095358
H        1.0460457669   -2.4147618973    2.0987505672
H       -0.6238096020   -2.9728223579    2.2872065636
H        0.2447209800   -3.2767535722    0.7743207757
H        1.6180110487   -0.7447793854    0.5431337216
H        0.7251399855   -1.4016526649   -0.8028455375
H        1.4911191855    1.2754503450   -0.5470276097
H       -1.4783716946    0.8507527021   -1.1013473242
H       -0.7973206839    2.7740069608   -2.6576398212
H        0.5166598702    3.1900440459   -1.5396548634
H       -1.1769572409    3.4078169870   -1.0591653638
24   
torsion grid (-30,)
C       -1.4497502971   -0.8070566988    1.3726144392
C        0.0086847789   -1.1335596752    0.9935245445
C        0.9798700024   -0.2563569524    1.8029669892
C        0.2662576476   -2.6126349973    1.3498038173
C        0.2610853405   -0.9864761506   -0.5310001815
C        0.3414614499    0.3759291825   -1.1884701062
C       -0.2568359272    1.5295537945   -0.8640369141
C       -0.1116012732    2.8079800899   -1.6458393021
H       -2.1515071517   -1.4023396257    0.7769735577
H       -1.6296949027   -1.0383576556    2.4289697017
H       -1.6988038311    0.2455904197    1.2234428316
H        2.0204670464   -0.4869447800    1.5460803142
H        0.8223765490    0.8084772398    1.6146870108
H        0.8529017126   -0.4340413342    2.8772025805
H        1.3044220413   -2.8961730989    1.1419514365
H        0.0752954167   -2.7973218096    2.4129610491
H       -0.3856760598   -3.2789445401    0.7724470733
H        1.2116623670   -1.4919585086   -0.7473836113
H       -0.4981388433   -1.5795425277   -1.0629286826
H        0.9534467946    0.3833383263   -2.0936972252
H       -0.8874886170    1.5908882986    0.0196578771
H       -1.0869178695    3.1710145079   -1.9944490935
H        0.5326837920    2.6727905159   -2.5203357367
H        0.3187519900    3.6053760113   -1.0264082592
24   
torsion grid (-15,)
C       -1.3209202055   -0.8579578566    1.3945872651
C        0.1512599558   -1.1273822702    1.0247980084
C        1.0890758428   -0.2068859465    1.8274980971
C        0.4710691774   -2.5896900209    1.4002141242
C        0.3944402191   -0.9900801516   -0.4989416463
C        0.3183503908    0.3458425218   -1.2043333768
C       -0.1926460409    1.5188625948   -0.8087064054
C       -0.2140929494    2.7617614511   -1.6585691802
H       -1.9901205324   -1.5178033376    0.8302895891
H       -1.4875810351   -1.0481542769    2.4612340153
H       -1.6260323119    0.1704868970    1.1912192889
H        2.1371065125   -0.4013879929    1.5714822362
H        0.8960555104    0.8511628855    1.6373875135
H        0.9695630211   -0.3835645913    2.9027337548
H        1.5182148958   -2.8344629817    1.1876954932
H        0.2963595467   -2.7654363349    2.4676722778
H       -0.1580508124   -3.2903505807    0.8386259039
H        1.3951159436   -1.3957587903   -0.7070669850
H       -0.2936747788   -1.6755976423   -1.0170095488
H        0.7270603224    0.3098094863   -2.2176419206
H       -0.6204446496    1.6256449948    0.1850008291
H       -1.2406098174    3.1190491369   -1.8109105664
H        0.2324160824    2.5836704087   -2.6419586617
H        0.3369473216    3.5804523301   -1.1782072905
24   
torsion grid (0,)
C       -1.3170766526   -0.7774258791    1.2272800894
C        0.1743323231   -1.0455101551    0.9472446455
C        1.0646181537   -0.1341660255    1.8141046866
C        0.4751565594   -2.5097166584    1.3312904371
C        0.5052927325   -0.8979945607   -0.5576811056
C        0.3333634506    0.4110003029   -1.2942195245
C       -0.0934261927    1.6090279287   -0.8746519922
C       -0.2038103950    2.8240235636   -1.7574788392
H       -1.9499577834   -1.4333765754    0.6183036184
H       -1.5494243489   -0.9741842242    2.2803508567
H       -1.6071492389    0.2523472941    1.0089996245
H        2.1255316968   -0.3316761149    1.6214639984
H        0.8895175383    0.9269394335    1.6253728558
H        0.8791642596   -0.3194933215    2.8784900318
H        1.5285811821   -2.7578795758    1.1564686958
H        0.2615470716   -2.6863708765    2.3914842317
H       -0.1355139314   -3.2073552172    0.7462872232
H        1.5509165394   -1.2096124928   -0.7019826019
H       -0.0826342961   -1.6507602272   -1.1044308750
H        0.6136580656    0.3354390213   -2.3483745157
H       -0.3886736904    1.7569037451    0.1609636254
H       -1.2349252279    3.1988015938   -1.7884236083
H        0.1081725517    2.6048070879   -2.7835150644
H        0.4193011609    3.6452941830   -1.3808328167
24   
torsion grid (15,)
C       -1.3068453331   -0.8526303453    1.2363490194
C        0.1972419163   -1.1139676486    1.0349521868
C        1.0336537940   -0.2212877864    1.9731352552
C        0.4861554639   -2.5845891892    1.4028660349
C        0.6079679910   -0.9315450887   -0.4475453134
C        0.3363208393    0.3515352933   -1.2011814621
C       -0.0036337333    1.5707573219   -0.7635272793
C       -0.2099679024    2.7636807685   -1.6590066287
H       -1.9041363892   -1.4913451862    0.5752665015
H       -1.5984836633   -1.0756696000    2.2692240526
H       -1.5806475882    0.1835904474    1.0262432066
H        2.1046767359   -0.4113284527    1.8373029420
H        0.8653481051    0.8440889124    1.8034411876
H        0.7882746323   -0.4327240243    3.0204026850
H        1.5448113937   -2.8296430332    1.2569402971
H        0.2395853517   -2.7796584708    2.4526411353
H       -0.1053662055   -3.2717673437    0.7868466128
H        1.6855882852   -1.1404285386   -0.5308097845
H        0.1266485791   -1.7373111736   -1.0205329777
H        0.4813090345    0.2442354251   -2.2794215027
H       -0.1592065821    1.7511007656    0.2971992852
H       -1.2298445397    3.1583373878   -1.5654929514
H       -0.0392237982    2.5110715721   -2.7102802111
H        0.4707733884    3.5818336848   -1.3910211716
24   
torsion grid (30,)
C       -1.3256235036   -0.7000684528    1.1040994165
C        0.1700598542   -0.9936830700    0.8929037504
C        1.0250786364   -0.1126090088    1.8256404569
C        0.4402230907   -2.4674385866    1.2616867162
C        0.5682939037   -0.8215771662   -0.5975007419
C        0.2100023805    0.4318868821   -1.3690780283
C        0.0536635994    1.6930501267   -0.9458844586
C       -0.2664822768    2.8553627111   -1.8476701665
H       -1.9425885695   -1.3279360719    0.4505396632
H       -1.6151348964   -0.9096152207    2.1404142789
H       -1.5719135414    0.3423352059    0.8876238714
H        2.0940844003   -0.2890735775    1.6592076756
H        0.8397366281    0.9542662610    1.6850289822
H        0.8082052506   -0.3459474016    2.8745855269
H        1.4919362861   -2.7308410463    1.0978403504
H        0.2093491701   -2.6548280717    2.3164197640
H       -0.1735779528   -3.1465649717    0.6588453590
H        1.6543634553   -0.9776356828   -0.6823267445
H        0.1222120363   -1.6617723835   -1.1461483779
H        0.1134363796    0.2643790052   -2.4445471599
H        0.1451494381    1.9324029770    0.1108756116
H       -1.2162406953    3.3273233047   -1.5649134852
H       -0.3413517728    2.5429253997   -2.8940453680
H        0.5049186652    3.6330438872   -1.7789838901
24   
torsion grid (45,)
C       -1.4058399108   -0.8210404627    1.0441129473
C        0.1057570199   -1.0572383058    0.8818116544
C        0.8826479402   -0.1380040889    1.8438831172
C        0.4295366133   -2.5187084981    1.2541839841
C        0.5305846920   -0.8648665118   -0.6017921354
C        0.1610750160    0.4050041882   -1.3456011059
C        0.2445507809    1.6799283981   -0.9418727307
C       -0.1533359974    2.8628458803   -1.7836048762
H       -1.9802164404   -1.4930741202    0.3953770109
H       -1.7182952587   -1.0064577273    2.0783870795
H       -1.6779269464    0.2062397169    0.7853280107
H        1.9624856300   -0.1950753115    1.6640406486
H        0.5782606042    0.9071053940    1.7545504995
H        0.7007348785   -0.4375202467    2.8825781583
H        1.5004659853   -2.7275980627    1.1452387181
H        0.1526873589   -2.7274268767    2.2937311096
H       -0.1161389313   -3.2222286176    0.6149616644
H        1.6199309483   -1.0062748398   -0.6594845204
H        0.1036732679   -1.7017316761   -1.1670896252
H       -0.2218826210    0.2396643247   -2.3548917818
H        0.6298372511    1.9156991384    0.0473975128
H       -0.9451115522    3.4467152617   -1.2967498435
H       -0.5184545786    2.5510586664   -2.7672588834
H        0.6934310276    3.5446098730   -1.9343657493
24   
torsion grid (60,)
C       -1.5233716595   -0.9124264377    0.9482998015
C        0.0031176002   -1.0633879393    0.8193161116
C        0.6948716188   -0.0574732396    1.7548155300
C        0.4106828373   -2.4880833755    1.2430947759
C        0.4297139982   -0.8859146318   -0.6674549733
C        0.0613732601    0.4040053523   -1.3743155463
C        0.4206876096    1.6516713977   -1.0413415309
C       -0.0295982600    2.8909224025   -1.7665915903
H       -2.0462746448   -1.6461039437    0.3231731271
H       -1.8451526610   -1.0666535243    1.9848070269
H       -1.8470921461    0.0863129400    0.6385968691
H        1.7827345287   -0.0649914067    1.6177023033
H        0.3351602614    0.9613229924    1.5920967217
H        0.4884050643   -0.3131311979    2.8005665590
H        1.4958798925   -2.6274342059    1.1712124845
H        0.1163859680   -2.6871240181    2.2798331099
H       -0.0671833703   -3.2436792895    0.6089109864
H        1.5190003705   -1.0258592671   -0.7139983811
H        0.0004798915   -1.7190543790   -1.2350817960
H       -0.6246447261    0.2981184603   -2.2170480644
H        1.1114547937    1.8110827740   -0.2146780661
H       -0.5576481110    3.5747037961   -1.0894820987
H       -0.7024459966    2.6484618831   -2.5951605554
H        0.8252323830    3.4471690934   -2.1719626851
24   
torsion grid (75,)
C       -1.5765694284   -0.9551167077    0.8862228568
C       -0.0443208807   -1.0699071399    0.7922692436
C        0.6019698295   -0.0265395051    1.7174000728
C        0.3908441649   -2.4767674206    1.2429254564
C        0.4124977126   -0.8858220106   -0.6858071814
C        0.0013594246    0.4023532981   -1.3627392059
C        0.5415359206    1.6101262334   -1.1500104719
C        0.0668343226    2.8900487727   -1.7818091341
H       -2.0684379851   -1.6931703661    0.2412887608
H       -1.9189970213   -1.1275663781    1.9131352408
H       -1.9166047486    0.0399307903    0.5812636462
H        1.6961210168   -0.0585350101    1.6510549822
H        0.2751582239    0.9870028319    1.4702685748
H        0.3247716869   -0.2206916945    2.7599637546
H        1.4794234511   -2.5928169136    1.1825348018
H        0.0918437837   -2.6663574762    2.2802034978
H       -0.0643296587   -3.2526307643    0.6164005549
H        1.5067696767   -0.9754245808   -0.7055997165
H        0.0265160796   -1.7314817142   -1.2668907736
H       -0.8653467841    0.3457016970   -2.0240511373
H        1.4075956374    1.6930646724   -0.4917227783
H       -0.2314232930    3.6199846797   -1.0181780793
H       -0.7911382729    2.7179552300   -2.4392441653
H        0.8620127052    3.3607999723   -2.3737315158
24   
torsion grid (90,)
C       -1.5917196742   -0.9883611020    0.8953163268
C       -0.0550547956   -1.0397779743    0.8229491727
C        0.5383599289    0.0356546956    1.7473668154
C        0.4308975029   -2.4264534445    1.2819324095
C        0.4225391441   -0.8254611748   -0.6439528305
C       -0.0591621123    0.4419924867   -1.3041696918
C        0.5816269223    1.6180909291   -1.2759099756
C        0.0740284268    2.8965279686   -1.8843052410
H       -2.0447646626   -1.7281178836    0.2242975840
H       -1.9402444803   -1.2021285096    1.9122889412
H       -1.9701151294   -0.0002917029    0.6139317391
H        1.6345572962    0.0140700114    1.7258659011
H        0.2148419584    1.0381215461    1.4527124932
H        0.2211183651   -0.1305993337    2.7832981662
H        1.5233225395   -2.5011931371    1.2264364312
H        0.1349722828   -2.6228890016    2.3188836384
H        0.0082041063   -3.2216190583    0.6567259774
H        1.5197640070   -0.8429565218   -0.6455103954
H        0.0962417955   -1.6883625249   -1.2382874085
H       -1.0353797210    0.3992075226   -1.7906255462
H        1.5556717947    1.6707814329   -0.7851404805
H       -0.0313895344    3.6809212539   -1.1237867403
H       -0.9005888017    2.7534852846   -2.3613566199
H        0.7705749380    3.2816820730   -2.6397309681
24   
torsion grid (105,)
C       -1.5582306256   -1.0037051787    0.9142669921
C       -0.0213671380   -0.9805923996    0.8307031514
C        0.5304271430    0.0935720869    1.7829389274
C        0.5291073095   -2.3579083911    1.2419909029
C        0.4408429906   -0.6923079483   -0.6269347188
C       -0.0821145098    0.5843634163   -1.2296606087
C        0.6366100896    1.7006414458   -1.4064531753
C        0.1146869146    2.9863538729   -1.9872004269
H       -1.9828812828   -1.7265497965    0.2072122290
H       -1.8868139687   -1.2884668375    1.9203447613
H       -1.9872294385   -0.0213515194    0.6921618663
H        1.6265680763    0.1140927286    1.7603677424
H        0.1717307302    1.0901190296    1.5082718401
H        0.2207279046   -0.1072468588    2.8150420528
H        1.6232426508   -2.3821111191    1.1770427931
H        0.2502864272   -2.6001682358    2.2739795040
H        0.1372265901   -3.1509117767    0.5942493410
H        1.5377057816   -0.6768047069   -0.6422235238
H        0.1302765269   -1.5392356830   -1.2542220575
H       -1.1335728649    0.5934859203   -1.5222128921
H        1.6885112903    1.6949294433   -1.1128075051
H        0.2230264369    3.8142983842   -1.2748996205
H       -0.9435049288    2.9047289900   -2.2545522964
H        0.6728574617    3.2704602891   -2.8882637906
24   
torsion grid (120,)
C       -1.5047990371   -1.0688178856    0.9641633677
C        0.0282729190   -0.9739357809    0.8592737421
C        0.5465911686    0.1045209370    1.8260954819
C        0.6423698430   -2.3346474016    1.2345930220
C        0.4596340707   -0.6348377480   -0.5946580671
C       -0.0725184072    0.6603309285   -1.1460155201
C        0.6828792483    1.6829035661   -1.5669297106
C        0.1579926082    2.9724304447   -2.1371060339
H       -1.9074449985   -1.7920768036    0.2449188171
H       -1.8028979927   -1.3945327343    1.9672748204
H       -1.9850034198   -0.1030615178    0.7773943247
H        1.6397040308    0.1785966910    1.7828092510
H        0.1374822007    1.0891132566    1.5788296667
H        0.2668695970   -0.1314683226    2.8593394526
H        1.7360465180   -2.3079585051    1.1640964480
H        0.3803924991   -2.6140644499    2.2615668004
H        0.2828571704   -3.1287290003    0.5695374815
H        1.5555515467   -0.6224241101   -0.6417698078
H        0.1282578638   -1.4597474113   -1.2423047687
H       -1.1571356917    0.7520680476   -1.2239452879
H        1.7689499312    1.5929544131   -1.4959634597
H        0.4893134830    3.8324303275   -1.5412124987
H       -0.9360549408    2.9813258318   -2.1675078032
H        0.5279428877    3.1342488393   -3.1575088550
24   
torsion grid (135,)
C       -1.6302918322   -1.1495354785    0.8322539041
C       -0.0960693792   -1.0206029141    0.8051119309
C        0.3561507155    0.0098315183    1.8546110575
C        0.5245367235   -2.3905865389    1.1334599996
C        0.3962348062   -0.5931960107   -0.6031566866
C       -0.0873255128    0.7485242298   -1.0876432300
C        0.6820462650    1.6732180374   -1.6758619234
C        0.1953682477    2.9916825773   -2.2131666291
H       -1.9829534971   -1.8431850228    0.0597974465
H       -1.9666341909   -1.5315057363    1.8028519833
H       -2.1254498752   -0.1865789936    0.6723467305
H        1.4479865316    0.1088336286    1.8625851820
H       -0.0635851149    0.9994428598    1.6468733666
H        0.0380900979   -0.2902309222    2.8597913528
H        1.6195902142   -2.3403635650    1.1272888673
H        0.2113385560   -2.7366354354    2.1251738323
H        0.2196065870   -3.1489951331    0.4026984345
H        1.4929919236   -0.6072780749   -0.6186628977
H        0.0668863908   -1.3644043268   -1.3157915921
H       -1.1564819864    0.9478131327   -1.0003750105
H        1.7513862317    1.4758011984   -1.7777754354
H        0.7047806130    3.8317253164   -1.7240759237
H       -0.8819068658    3.1128082019   -2.0620840893
H        0.3997310287    3.0810753851   -3.2877173888
24   
torsion grid (150,)
C       -1.8718348820   -1.1056338710    1.1388398672
C       -0.3350191547   -1.0153947778    1.0952789946
C        0.1585310276   -0.0193556383    2.1599826702
C        0.2512849556   -2.4080205888    1.3908233081
C        0.1505338588   -0.5755685512   -0.3092336894
C       -0.2821979200    0.8001048287   -0.7554494212
C        0.4163877084    1.5906602020   -1.5796330474
C       -0.0413882577    2.9303982020   -2.0892398790
H       -2.2494629944   -1.7832828321    0.3641596021
H       -2.2068113156   -1.4876581047    2.1098596162
H       -2.3467053435   -0.1304389546    0.9921265382
H        1.2526613341    0.0485902562    2.1559016176
H       -0.2351001366    0.9864417091    1.9799987258
H       -0.1557939943   -0.3305146741    3.1629508083
H        1.3471688504   -2.3871645542    1.3753352035
H       -0.0624306338   -2.7654043676    2.3783223681
H       -0.0805823889   -3.1431091521    0.6480828919
H        1.2448043380   -0.6411183972   -0.3497080357
H       -0.2265263295   -1.3140866369   -1.0325963921
H       -1.2711672903    1.1354629497   -0.4403400627
H        1.4018747454    1.2587973047   -1.9143640779
H        0.6591687442    3.7251967442   -1.8030749633
H       -1.0297659431    3.1910733949   -1.6977403738
H       -0.0976133309    2.9388649093   -3.1852943101
24   
torsion grid (165,)
C       -1.6518240805   -1.0679556136    1.1128903598
C       -0.1179628214   -0.9354444604    1.1526867364
C        0.2925364214    0.0576978825    2.2553645953
C        0.4900244614   -2.3151888490    1.4651147080
C        0.4265298224   -0.4681735897   -0.2190919106
C       -0.0321085020    0.8985095818   -0.6814253138
C        0.5327263555    1.5964910975   -1.6739732282
C        0.0496927078    2.9294650203   -2.1780119401
H       -1.9666633687   -1.7576194795    0.3210420507
H       -2.0295511007   -1.4563611320    2.0655385081
H       -2.1448444893   -0.1072507941    0.9337925232
H        1.3829968570    0.1566929962    2.3073579796
H       -0.1216073094    1.0552360747    2.0759061147
H       -0.0618166200   -0.2798011494    3.2361739383
H        1.5841476423   -2.2644846765    1.5093746717
H        0.1333725991   -2.6927043998    2.4302680302
H        0.2191445135   -3.0499936362    0.6978420252
H        1.5232177602   -0.4931967295   -0.1931750389
H        0.1249911373   -1.2153983113   -0.9671355991
H       -0.9215849453    1.3148607049   -0.2076051679
H        1.4180876358    1.1875202339   -2.1667174098
H        0.8282727689    3.6969845172   -2.0822854568
H       -0.8323901851    3.2696004720   -1.6262271666
H       -0.2143908833    2.8788933951   -3.2421308136
24   
torsion grid (180,)
C       -1.7360938522   -1.0347849218    0.9213575337
C       -0.2063773822   -0.9342829550    1.0684130303
C        0.1476504466    0.0008554518    2.2397233376
C        0.3591089833   -2.3361888944    1.3617425016
C        0.4316529798   -0.4226658015   -0.2451772953
C       -0.0068859998    0.9555334243   -0.6999281173
C        0.4312254927    1.5674912409   -1.8064817675
C        0.0021364453    2.9345806081   -2.2659298372
H       -2.0074144806   -1.6994300000    0.0929218601
H       -2.1877859428   -1.4362573230    1.8357141440
H       -2.1944403060   -0.0596907662    0.7278172078
H        1.2340228480    0.0843201767    2.3601344906
H       -0.2481235224    1.0107956024    2.0923313561
H       -0.2659790050   -0.3818564009    3.1797729749
H        1.4488933574   -2.3070150575    1.4771935814
H       -0.0642476206   -2.7454893823    2.2861171636
H        0.1264610219   -3.0345742534    0.5493738879
H        1.5228670902   -0.4312533949   -0.1218848435
H        0.2130715877   -1.1503428479   -1.0380941639
H       -0.7311392011    1.4838252207   -0.0795202275
H        1.1574339561    1.0526648418   -2.4403289263
H        0.8594109179    3.6157987317   -2.3407426838
H       -0.7240163219    3.3777231295   -1.5770266972
H       -0.4559165409    2.8932653070   -3.2624441631
