39
0 1 C19H15IN4
C                    -1.085710829924    -5.225388111522    -0.769889292634
C                    -0.732803590607    -6.470879168820    -1.351975635824
C                    -0.152808174745    -4.210848441370    -0.696103944523
C                     0.537974178535    -6.678968079008    -1.846904597964
C                     2.150437910158    -3.372121242413    -1.137619092544
C                     3.420999785582    -3.564344197426    -1.626333461022
C                     8.846513637499     0.372526177480    -1.649576845028
C                     9.850897312165    -0.360602523731    -2.247657950419
C                     2.835997326703    -5.834274692757    -2.283636407342
C                     7.286956842312    -1.477990891047    -1.928617671578
C                     1.163302703172    -4.394310491944    -1.196610836638
C                     1.521787046947    -5.651365685286    -1.785052307081
C                     3.775909251544    -4.815780899359    -2.210495872246
C                     7.555393698407    -0.204544952198    -1.494252951240
C                     8.314678808916    -3.483503361317    -3.047658098395
C                     9.629310181438    -3.665556456400    -3.512878745004
C                     9.591169220677    -1.669128937526    -2.699749112461
C                     7.202061725586    -4.389920686518    -3.083810543492
C                    10.193491353321    -4.873178253684    -4.195962046129
N                    10.391809149192    -2.560754399703    -3.296866231603
N                     6.026319865394    -4.092113278122    -2.624236588145
N                     8.297378053236    -2.194521472785    -2.523688912246
N                     5.056617591972    -5.026030958692    -2.716884262134
I                     5.998353172608     0.906933976787    -0.576798100696
H                    -2.090548189380    -5.075761270791    -0.384138966076
H                    -1.472767594471    -7.265443264523    -1.406615722877
H                    -0.416401053782    -3.253727218546    -0.251177323320
H                     0.802118894151    -7.635887182596    -2.291861101804
H                     1.889099908134    -2.414295631805    -0.693458947488
H                     4.159910605086    -2.774560879148    -1.574485826235
H                     9.036991048564     1.381174893461    -1.299379940257
H                    10.849057270155     0.041188068975    -2.384852762147
H                     3.102562953973    -6.791747241622    -2.728895875719
H                     6.334064549751    -1.977530648307    -1.843785008347
H                     7.406448173335    -5.368819144384    -3.534336642767
H                    10.088518803422    -4.791342606753    -5.284280857143
H                    11.259402224142    -4.955451143869    -3.971329362969
H                     9.697758867339    -5.794933616292    -3.878891174362
H                     5.279986181904    -5.943478808221    -3.099229211630
