
  -OEChem-12102412493D

 28 29  0     0  0  0  0  0  0999 V2000
    5.8511   -0.3282   -1.1326 C   0  0  0  0  0  0  0  0  0  0  0  0
    4.9113   -2.2987   -2.1845 C   0  0  0  0  0  0  0  0  0  0  0  0
    6.1367    0.2157   -2.3846 C   0  0  0  0  0  0  0  0  0  0  0  0
    5.1703   -1.7607   -3.4441 C   0  0  0  0  0  0  0  0  0  0  0  0
    6.1173   -6.7841   -0.4659 C   0  0  0  0  0  0  0  0  0  0  0  0
    7.6044   -5.0218   -1.1506 C   0  0  0  0  0  0  0  0  0  0  0  0
    5.2552   -1.5917   -1.0231 C   0  0  0  0  0  0  0  0  0  0  0  0
    5.2726   -5.8267    0.0950 C   0  0  0  0  0  0  0  0  0  0  0  0
    5.7897   -0.5152   -3.5177 C   0  0  0  0  0  0  0  0  0  0  0  0
    7.2947   -6.3822   -1.1055 C   0  0  0  0  0  0  0  0  0  0  0  0
    5.6832   -4.4768   -0.0088 C   0  0  0  0  0  0  0  0  0  0  0  0
    4.9304   -2.0951    0.3415 C   0  0  0  0  0  0  0  0  0  0  0  0
    3.9786   -6.2047    0.7695 C   0  0  0  0  0  0  0  0  0  0  0  0
    6.8187   -4.0939   -0.5958 N   0  0  0  0  0  0  0  0  0  0  0  0
    4.8577   -3.4785    0.5443 N   0  0  0  0  0  0  0  0  0  0  0  0
    4.6358   -1.3406    1.2634 O   0  0  0  0  0  0  0  0  0  0  0  0
    6.0583    0.0070   -4.7401 F   0  0  0  0  0  0  0  0  0  0  0  0
    8.5940   -7.8081   -1.9918 I   0  0  0  0  0  0  0  0  0  0  0  0
    6.0897    0.2195   -0.2266 H   0  0  0  0  0  0  0  0  0  0  0  0
    4.4271   -3.2671   -2.1108 H   0  0  0  0  0  0  0  0  0  0  0  0
    6.6113    1.1860   -2.4928 H   0  0  0  0  0  0  0  0  0  0  0  0
    4.9040   -2.2855   -4.3562 H   0  0  0  0  0  0  0  0  0  0  0  0
    5.8464   -7.8347   -0.4166 H   0  0  0  0  0  0  0  0  0  0  0  0
    8.5126   -4.6654   -1.6310 H   0  0  0  0  0  0  0  0  0  0  0  0
    4.0109   -6.0047    1.8482 H   0  0  0  0  0  0  0  0  0  0  0  0
    3.1385   -5.6352    0.3577 H   0  0  0  0  0  0  0  0  0  0  0  0
    3.7670   -7.2690    0.6426 H   0  0  0  0  0  0  0  0  0  0  0  0
    4.4365   -3.6957    1.4424 H   0  0  0  0  0  0  0  0  0  0  0  0
  1  3  1  0  0  0  0
  1  7  2  0  0  0  0
  1 19  1  0  0  0  0
  2  4  2  0  0  0  0
  2  7  1  0  0  0  0
  2 20  1  0  0  0  0
  3  9  2  0  0  0  0
  3 21  1  0  0  0  0
  4  9  1  0  0  0  0
  4 22  1  0  0  0  0
  5  8  2  0  0  0  0
  5 10  1  0  0  0  0
  5 23  1  0  0  0  0
  6 10  2  0  0  0  0
  6 14  1  0  0  0  0
  6 24  1  0  0  0  0
  7 12  1  0  0  0  0
  8 11  1  0  0  0  0
  8 13  1  0  0  0  0
  9 17  1  0  0  0  0
 10 18  1  0  0  0  0
 11 14  2  0  0  0  0
 11 15  1  0  0  0  0
 12 15  1  0  0  0  0
 12 16  2  0  0  0  0
 13 25  1  0  0  0  0
 13 26  1  0  0  0  0
 13 27  1  0  0  0  0
 15 28  1  0  0  0  0
M  END
$$$$
