20
0 1 C7H9IN2O
C                     2.119105899025     0.989572168584     4.071858565291
C                     2.673934287052     0.785854029319     5.324906998130
C                     2.923502557103    -0.611241123483     5.419079041159
C                     2.844289025584    -0.493894838742     1.106941308489
C                     3.504030161194    -1.379668008436     6.563241356996
C                     4.257637718826    -0.506287417584     1.637359296840
C                     1.685755696069    -0.544795447409     2.119955990464
N                     2.544896551523    -1.217153660001     4.288318027056
N                     2.048820174438    -0.236365759029     3.487241225711
O                     2.570756891464    -0.473365350645    -0.080327835846
I                     3.042048528914     2.244116347268     6.786170761593
H                     1.774513118502     1.888804087489     3.579856074838
H                     2.882228549748    -1.279016111086     7.458906134658
H                     3.575366339587    -2.437407097224     6.302293639040
H                     4.502449987529    -1.009319792061     6.817823088983
H                     4.410500832749    -1.387248239141     2.269385829103
H                     4.960815974182    -0.505290574722     0.803875349732
H                     4.433829398411     0.365578657507     2.277172502421
H                     1.275096834160    -1.558147871447     2.102794233761
H                     0.904543471656     0.138921659844     1.780732644094
