28
0 1 C11H11IN4O
C                    -5.366559144936    -3.786561546460     1.060256194275
C                    -6.497834678041    -4.657142837493     0.974425672161
C                     0.598061816882     0.894986102597     1.868718907161
C                    -5.278403217071    -3.379727275799     2.370824374836
C                    -0.159666904074     0.100838744532     0.999433867457
C                     0.204738980315     0.949775856840     3.212618219230
C                    -7.021851336677    -4.721390195015     2.238496749880
C                    -1.515222175016    -0.465707923568     2.727741168711
C                    -4.383069503256    -2.517345289306     3.105568537652
C                     0.174170386685    -0.029214127516    -0.462480350050
C                     0.946143896681     1.771020882293     4.233472010692
N                    -1.228388060433    -0.588708133424     1.428352454696
N                    -0.860209433579     0.265147458804     3.649579151756
N                    -3.400154648570    -1.937101853377     2.503628185197
N                    -2.603174880068    -1.146156790035     3.246638503510
O                    -6.298804948318    -3.953972974888     3.104759473322
I                    -8.658332442769    -5.746848923607     3.013882204026
H                    -4.694990787541    -3.489366655394     0.266550302297
H                    -6.877205508736    -5.168764763536     0.100747789553
H                     1.460747646345     1.449491216266     1.514407178610
H                    -4.590511012752    -2.394299332081     4.176027924728
H                     0.357485945132    -1.079686845895    -0.709220522458
H                    -0.676503389977     0.298988304384    -1.067967851432
H                     1.053596615498     0.559797843586    -0.733604320395
H                     0.271464702260     2.506120863865     4.683539562039
H                     1.306834539001     1.126541513778     5.041369763405
H                     1.796916158513     2.294790568633     3.791384557518
H                    -2.767546725181    -1.009955572021     4.244103043269
