
  -OEChem-12122420533D

 28 29  0     0  0  0  0  0  0999 V2000
   -5.3666   -3.7866    1.0603 C   0  0  0  0  0  0  0  0  0  0  0  0
   -6.4978   -4.6571    0.9744 C   0  0  0  0  0  0  0  0  0  0  0  0
    0.5981    0.8950    1.8687 C   0  0  0  0  0  0  0  0  0  0  0  0
   -5.2784   -3.3797    2.3708 C   0  0  0  0  0  0  0  0  0  0  0  0
   -0.1597    0.1008    0.9994 C   0  0  0  0  0  0  0  0  0  0  0  0
    0.2047    0.9498    3.2126 C   0  0  0  0  0  0  0  0  0  0  0  0
   -7.0219   -4.7214    2.2385 C   0  0  0  0  0  0  0  0  0  0  0  0
   -1.5152   -0.4657    2.7277 C   0  0  0  0  0  0  0  0  0  0  0  0
   -4.3831   -2.5173    3.1056 C   0  0  0  0  0  0  0  0  0  0  0  0
    0.1742   -0.0292   -0.4625 C   0  0  0  0  0  0  0  0  0  0  0  0
    0.9461    1.7710    4.2335 C   0  0  0  0  0  0  0  0  0  0  0  0
   -1.2284   -0.5887    1.4284 N   0  0  0  0  0  0  0  0  0  0  0  0
   -0.8602    0.2651    3.6496 N   0  0  0  0  0  0  0  0  0  0  0  0
   -3.4002   -1.9371    2.5036 N   0  0  0  0  0  0  0  0  0  0  0  0
   -2.6032   -1.1462    3.2466 N   0  0  0  0  0  0  0  0  0  0  0  0
   -6.2988   -3.9540    3.1048 O   0  0  0  0  0  0  0  0  0  0  0  0
   -8.6583   -5.7468    3.0139 I   0  0  0  0  0  0  0  0  0  0  0  0
   -4.6950   -3.4894    0.2666 H   0  0  0  0  0  0  0  0  0  0  0  0
   -6.8772   -5.1688    0.1007 H   0  0  0  0  0  0  0  0  0  0  0  0
    1.4607    1.4495    1.5144 H   0  0  0  0  0  0  0  0  0  0  0  0
   -4.5905   -2.3943    4.1760 H   0  0  0  0  0  0  0  0  0  0  0  0
    0.3575   -1.0797   -0.7092 H   0  0  0  0  0  0  0  0  0  0  0  0
   -0.6765    0.2990   -1.0680 H   0  0  0  0  0  0  0  0  0  0  0  0
    1.0536    0.5598   -0.7336 H   0  0  0  0  0  0  0  0  0  0  0  0
    0.2715    2.5061    4.6835 H   0  0  0  0  0  0  0  0  0  0  0  0
    1.3068    1.1265    5.0414 H   0  0  0  0  0  0  0  0  0  0  0  0
    1.7969    2.2948    3.7914 H   0  0  0  0  0  0  0  0  0  0  0  0
   -2.7675   -1.0100    4.2441 H   0  0  0  0  0  0  0  0  0  0  0  0
  1  2  1  0  0  0  0
  1  4  2  0  0  0  0
  1 18  1  0  0  0  0
  2  7  2  0  0  0  0
  2 19  1  0  0  0  0
  3  5  1  0  0  0  0
  3  6  2  0  0  0  0
  3 20  1  0  0  0  0
  4  9  1  0  0  0  0
  4 16  1  0  0  0  0
  5 10  1  0  0  0  0
  5 12  2  0  0  0  0
  6 11  1  0  0  0  0
  6 13  1  0  0  0  0
  7 16  1  0  0  0  0
  7 17  1  0  0  0  0
  8 12  1  0  0  0  0
  8 13  2  0  0  0  0
  8 15  1  0  0  0  0
  9 14  2  0  0  0  0
  9 21  1  0  0  0  0
 10 22  1  0  0  0  0
 10 23  1  0  0  0  0
 10 24  1  0  0  0  0
 11 25  1  0  0  0  0
 11 26  1  0  0  0  0
 11 27  1  0  0  0  0
 14 15  1  0  0  0  0
 15 28  1  0  0  0  0
M  END
$$$$
