
  -OEChem-12102412493D

 20 20  0     0  0  0  0  0  0999 V2000
    2.7250   -0.7345    5.4248 C   0  0  0  0  0  0  0  0  0  0  0  0
    2.5435    0.6664    5.5138 C   0  0  0  0  0  0  0  0  0  0  0  0
    2.1120    1.0796    4.2575 C   0  0  0  0  0  0  0  0  0  0  0  0
    2.8877    0.2156    1.1813 C   0  0  0  0  0  0  0  0  0  0  0  0
    1.7811    2.4317    3.7184 C   0  0  0  0  0  0  0  0  0  0  0  0
    2.7579   -0.2564   -0.2512 C   0  0  0  0  0  0  0  0  0  0  0  0
    1.7407   -0.2021    2.1129 C   0  0  0  0  0  0  0  0  0  0  0  0
    2.4276   -1.1757    4.2048 N   0  0  0  0  0  0  0  0  0  0  0  0
    2.0464   -0.0649    3.5140 N   0  0  0  0  0  0  0  0  0  0  0  0
    3.8213    0.8864    1.5775 O   0  0  0  0  0  0  0  0  0  0  0  0
    2.8578    1.8759    7.1994 I   0  0  0  0  0  0  0  0  0  0  0  0
    3.0500   -1.4242    6.1930 H   0  0  0  0  0  0  0  0  0  0  0  0
    2.5177    2.7418    2.9708 H   0  0  0  0  0  0  0  0  0  0  0  0
    0.7886    2.4502    3.2542 H   0  0  0  0  0  0  0  0  0  0  0  0
    1.7845    3.1628    4.5289 H   0  0  0  0  0  0  0  0  0  0  0  0
    1.7291   -0.1590   -0.6145 H   0  0  0  0  0  0  0  0  0  0  0  0
    3.4399    0.3025   -0.8936 H   0  0  0  0  0  0  0  0  0  0  0  0
    3.0171   -1.3212   -0.2975 H   0  0  0  0  0  0  0  0  0  0  0  0
    1.4775   -1.2481    1.9378 H   0  0  0  0  0  0  0  0  0  0  0  0
    0.8625    0.4016    1.8519 H   0  0  0  0  0  0  0  0  0  0  0  0
  1  2  1  0  0  0  0
  1  8  2  0  0  0  0
  1 12  1  0  0  0  0
  2  3  2  0  0  0  0
  2 11  1  0  0  0  0
  3  5  1  0  0  0  0
  3  9  1  0  0  0  0
  4  6  1  0  0  0  0
  4  7  1  0  0  0  0
  4 10  2  0  0  0  0
  5 13  1  0  0  0  0
  5 14  1  0  0  0  0
  5 15  1  0  0  0  0
  6 16  1  0  0  0  0
  6 17  1  0  0  0  0
  6 18  1  0  0  0  0
  7  9  1  0  0  0  0
  7 19  1  0  0  0  0
  7 20  1  0  0  0  0
  8  9  1  0  0  0  0
M  END
$$$$
