20
0 1 C7H9IN2O
C                     2.902469324051    -0.606090662859     5.497668027150
C                     2.695324354880     0.790614703302     5.390444807198
C                     2.143079447038     1.000471255877     4.130638723169
C                     2.798652804103    -0.344898036398     1.185047621362
C                     1.711853874707     2.245591026568     3.426636597105
C                     4.222176982428    -0.432564930435     1.682581929289
C                     1.673344342019    -0.563553737049     2.211411348820
N                     2.512206243034    -1.230842087996     4.388101502270
N                     2.041936102812    -0.245465209879     3.575118510024
O                     2.504056522399    -0.141002760353     0.020333671362
I                     3.118689259044     2.245818080634     6.841450761479
H                     3.307856104538    -1.167252503040     6.329638278723
H                     2.239854613310     2.379732792714     2.476077018233
H                     0.637661650419     2.233375325209     3.211494506131
H                     1.919836118644     3.114132365913     4.053821300769
H                     4.369317177112    -1.357992804052     2.249015670972
H                     4.910089306064    -0.382289454682     0.837949864093
H                     4.430853178776     0.387846413364     2.378567840835
H                     1.402344865904    -1.622891591900     2.190388678146
H                     0.802898732023     0.017059159825     1.899915491262
