
  -OEChem-12102412493D

 35 36  0     0  0  0  0  0  0999 V2000
   -1.0176   -7.8693    2.8094 C   0  0  0  0  0  0  0  0  0  0  0  0
   -2.2475   -8.3696    3.2434 C   0  0  0  0  0  0  0  0  0  0  0  0
   -0.9592   -6.6067    2.2169 C   0  0  0  0  0  0  0  0  0  0  0  0
   -3.4098   -7.6087    3.0866 C   0  0  0  0  0  0  0  0  0  0  0  0
   -2.1181   -5.8335    2.0397 C   0  0  0  0  0  0  0  0  0  0  0  0
   -3.3470   -6.3488    2.4823 C   0  0  0  0  0  0  0  0  0  0  0  0
   -0.6557   -1.9606    0.4101 C   0  0  0  0  0  0  0  0  0  0  0  0
   -1.9976   -4.5107    1.3269 C   0  0  0  0  0  0  0  0  0  0  0  0
   -0.7180   -0.4922    0.0748 C   0  0  0  0  0  0  0  0  0  0  0  0
   -0.1970   -2.8414   -0.7240 C   0  0  0  0  0  0  0  0  0  0  0  0
   -1.6078   -0.2769   -1.1684 C   0  0  0  0  0  0  0  0  0  0  0  0
   -1.0689   -2.6065   -1.9766 C   0  0  0  0  0  0  0  0  0  0  0  0
   -1.1536   -1.1204   -2.3754 C   0  0  0  0  0  0  0  0  0  0  0  0
    0.1547   -0.6008   -2.9927 C   0  0  0  0  0  0  0  0  0  0  0  0
   -1.0093   -2.2949    1.6018 N   0  0  0  0  0  0  0  0  0  0  0  0
   -1.0503   -3.6763    1.8938 N   0  0  0  0  0  0  0  0  0  0  0  0
   -2.6338   -4.2390    0.3159 O   0  0  0  0  0  0  0  0  0  0  0  0
   -5.1554   -5.2327    2.3373 I   0  0  0  0  0  0  0  0  0  0  0  0
   -0.1118   -8.4573    2.9272 H   0  0  0  0  0  0  0  0  0  0  0  0
   -2.3098   -9.3505    3.7070 H   0  0  0  0  0  0  0  0  0  0  0  0
   -0.0095   -6.2120    1.8662 H   0  0  0  0  0  0  0  0  0  0  0  0
   -4.3619   -7.9938    3.4368 H   0  0  0  0  0  0  0  0  0  0  0  0
   -1.1015    0.0615    0.9348 H   0  0  0  0  0  0  0  0  0  0  0  0
    0.2975   -0.1305   -0.1324 H   0  0  0  0  0  0  0  0  0  0  0  0
    0.8427   -2.5616   -0.9431 H   0  0  0  0  0  0  0  0  0  0  0  0
   -0.1999   -3.8948   -0.4481 H   0  0  0  0  0  0  0  0  0  0  0  0
   -2.6366   -0.5513   -0.9063 H   0  0  0  0  0  0  0  0  0  0  0  0
   -1.6164    0.7878   -1.4298 H   0  0  0  0  0  0  0  0  0  0  0  0
   -0.6684   -3.1973   -2.8088 H   0  0  0  0  0  0  0  0  0  0  0  0
   -2.0697   -2.9893   -1.7586 H   0  0  0  0  0  0  0  0  0  0  0  0
   -1.9301   -1.0340   -3.1463 H   0  0  0  0  0  0  0  0  0  0  0  0
    0.4237   -1.1843   -3.8802 H   0  0  0  0  0  0  0  0  0  0  0  0
    0.9988   -0.6572   -2.2974 H   0  0  0  0  0  0  0  0  0  0  0  0
    0.0542    0.4464   -3.2995 H   0  0  0  0  0  0  0  0  0  0  0  0
   -0.8937   -3.8334    2.8837 H   0  0  0  0  0  0  0  0  0  0  0  0
  1  2  1  0  0  0  0
  1  3  2  0  0  0  0
  1 19  1  0  0  0  0
  2  4  2  0  0  0  0
  2 20  1  0  0  0  0
  3  5  1  0  0  0  0
  3 21  1  0  0  0  0
  4  6  1  0  0  0  0
  4 22  1  0  0  0  0
  5  6  2  0  0  0  0
  5  8  1  0  0  0  0
  6 18  1  0  0  0  0
  7  9  1  0  0  0  0
  7 10  1  0  0  0  0
  7 15  2  0  0  0  0
  8 16  1  0  0  0  0
  8 17  2  0  0  0  0
  9 11  1  0  0  0  0
  9 23  1  0  0  0  0
  9 24  1  0  0  0  0
 10 12  1  0  0  0  0
 10 25  1  0  0  0  0
 10 26  1  0  0  0  0
 11 13  1  0  0  0  0
 11 27  1  0  0  0  0
 11 28  1  0  0  0  0
 12 13  1  0  0  0  0
 12 29  1  0  0  0  0
 12 30  1  0  0  0  0
 13 14  1  0  0  0  0
 13 31  1  0  0  0  0
 14 32  1  0  0  0  0
 14 33  1  0  0  0  0
 14 34  1  0  0  0  0
 15 16  1  0  0  0  0
 16 35  1  0  0  0  0
M  END
$$$$
