39
0 1 C19H15IN4
C                    -0.822987664217    -2.554506928262    -0.633550435627
C                    -0.142347526647    -1.902751664149    -1.695134716531
C                    -0.130221039274    -3.389276850077     0.219887842160
C                     1.210443968142    -2.095490053640    -1.884192821400
C                     2.010686648617    -4.460444704895     0.909705881101
C                     3.358663223467    -4.654818691184     0.724246906238
C                     7.605126370636    -0.730969668774    -5.686120393449
C                     8.836919173118    -1.283745764700    -5.399855366622
C                     3.343285264932    -3.162612115844    -1.197585152426
C                     6.600796941926    -1.924850347888    -3.815907470853
C                     1.262768243426    -3.607642461073     0.050920373436
C                     1.952194982279    -2.950720749891    -1.020347098992
C                     4.042108222507    -4.000122334218    -0.342541229271
C                     6.483281040014    -1.063515724805    -4.877174155470
C                     8.241556361098    -3.352400638725    -2.550552212338
C                     9.616662443928    -3.539683142381    -2.777272780059
C                     8.973735019878    -2.170877337586    -4.314212414259
C                     7.393255917767    -3.920661523481    -1.541130209699
C                    10.552476055317    -4.421348372890    -2.009224727779
N                    10.048095670689    -2.819810081585    -3.846981026544
N                     6.126408474770    -3.657949063029    -1.461008927593
N                     7.833690729345    -2.467909263238    -3.544884636856
N                     5.409010751504    -4.237795573716    -0.478038773889
I                     4.578796299333    -0.226813501822    -5.297311396155
H                    -1.888966894150    -2.393155864797    -0.496863602271
H                    -0.695370647787    -1.246824287530    -2.362840418962
H                    -0.646231352548    -3.891649033649     1.035417949533
H                     1.729314822913    -1.594632528706    -2.698602792912
H                     1.501263723765    -4.965703084476     1.726971171132
H                     3.913425273839    -5.311251453206     1.392340088097
H                     7.490695947578    -0.047899443618    -6.520797508165
H                     9.717441714233    -1.056281269074    -5.991047309703
H                     3.858638837537    -2.663672948259    -2.009692176468
H                     5.795672120131    -2.221270962734    -3.161620363666
H                     7.884139066125    -4.600796365608    -0.834309717562
H                    10.606401530880    -5.419595359364    -2.459473342400
H                    11.557712170968    -3.994114304882    -2.029952535620
H                    10.244341504942    -4.538880938592    -0.966564792323
H                     5.866106088423    -4.866853718166     0.179401806131
