
  -OEChem-12122420533D

 35 36  0     0  0  0  0  0  0999 V2000
    2.2284   -8.0501   -3.0307 C   0  0  0  0  0  0  0  0  0  0  0  0
    1.1292   -8.7267   -2.4923 C   0  0  0  0  0  0  0  0  0  0  0  0
    2.4866   -6.7374   -2.6430 C   0  0  0  0  0  0  0  0  0  0  0  0
    0.3031   -8.0910   -1.5635 C   0  0  0  0  0  0  0  0  0  0  0  0
    1.6523   -6.0655   -1.7330 C   0  0  0  0  0  0  0  0  0  0  0  0
    0.5646   -6.7668   -1.1893 C   0  0  0  0  0  0  0  0  0  0  0  0
    0.2194   -1.6179   -1.2521 C   0  0  0  0  0  0  0  0  0  0  0  0
    2.0594   -4.6466   -1.3988 C   0  0  0  0  0  0  0  0  0  0  0  0
    0.4675   -0.1848   -0.8514 C   0  0  0  0  0  0  0  0  0  0  0  0
   -1.1942   -1.9052   -1.7132 C   0  0  0  0  0  0  0  0  0  0  0  0
    0.0382    0.7849   -1.9678 C   0  0  0  0  0  0  0  0  0  0  0  0
   -1.6110   -0.9169   -2.8225 C   0  0  0  0  0  0  0  0  0  0  0  0
   -1.4152    0.5494   -2.4069 C   0  0  0  0  0  0  0  0  0  0  0  0
   -1.8293    1.5068   -3.5294 C   0  0  0  0  0  0  0  0  0  0  0  0
    1.2236   -2.4198   -1.1951 N   0  0  0  0  0  0  0  0  0  0  0  0
    1.0462   -3.7290   -1.5619 N   0  0  0  0  0  0  0  0  0  0  0  0
    3.2089   -4.3713   -1.0903 O   0  0  0  0  0  0  0  0  0  0  0  0
   -0.7148   -5.9356    0.3174 I   0  0  0  0  0  0  0  0  0  0  0  0
    2.8832   -8.5452   -3.7423 H   0  0  0  0  0  0  0  0  0  0  0  0
    0.9181   -9.7532   -2.7800 H   0  0  0  0  0  0  0  0  0  0  0  0
    3.3482   -6.2020   -3.0307 H   0  0  0  0  0  0  0  0  0  0  0  0
   -0.5326   -8.6256   -1.1243 H   0  0  0  0  0  0  0  0  0  0  0  0
   -0.1180    0.0353    0.0532 H   0  0  0  0  0  0  0  0  0  0  0  0
    1.5236   -0.0645   -0.5998 H   0  0  0  0  0  0  0  0  0  0  0  0
   -1.3409   -2.9300   -2.0652 H   0  0  0  0  0  0  0  0  0  0  0  0
   -1.8628   -1.7795   -0.8510 H   0  0  0  0  0  0  0  0  0  0  0  0
    0.1652    1.8189   -1.6261 H   0  0  0  0  0  0  0  0  0  0  0  0
    0.7018    0.6534   -2.8331 H   0  0  0  0  0  0  0  0  0  0  0  0
   -1.0144   -1.1172   -3.7225 H   0  0  0  0  0  0  0  0  0  0  0  0
   -2.6588   -1.0958   -3.0908 H   0  0  0  0  0  0  0  0  0  0  0  0
   -2.0631    0.7392   -1.5375 H   0  0  0  0  0  0  0  0  0  0  0  0
   -2.8748    1.3534   -3.8195 H   0  0  0  0  0  0  0  0  0  0  0  0
   -1.2091    1.3547   -4.4209 H   0  0  0  0  0  0  0  0  0  0  0  0
   -1.7165    2.5516   -3.2198 H   0  0  0  0  0  0  0  0  0  0  0  0
    0.1218   -4.0765   -1.7971 H   0  0  0  0  0  0  0  0  0  0  0  0
  1  2  1  0  0  0  0
  1  3  2  0  0  0  0
  1 19  1  0  0  0  0
  2  4  2  0  0  0  0
  2 20  1  0  0  0  0
  3  5  1  0  0  0  0
  3 21  1  0  0  0  0
  4  6  1  0  0  0  0
  4 22  1  0  0  0  0
  5  6  2  0  0  0  0
  5  8  1  0  0  0  0
  6 18  1  0  0  0  0
  7  9  1  0  0  0  0
  7 10  1  0  0  0  0
  7 15  2  0  0  0  0
  8 16  1  0  0  0  0
  8 17  2  0  0  0  0
  9 11  1  0  0  0  0
  9 23  1  0  0  0  0
  9 24  1  0  0  0  0
 10 12  1  0  0  0  0
 10 25  1  0  0  0  0
 10 26  1  0  0  0  0
 11 13  1  0  0  0  0
 11 27  1  0  0  0  0
 11 28  1  0  0  0  0
 12 13  1  0  0  0  0
 12 29  1  0  0  0  0
 12 30  1  0  0  0  0
 13 14  1  0  0  0  0
 13 31  1  0  0  0  0
 14 32  1  0  0  0  0
 14 33  1  0  0  0  0
 14 34  1  0  0  0  0
 15 16  1  0  0  0  0
 16 35  1  0  0  0  0
M  END
$$$$
