
  -OEChem-12102412493D

 20 20  0     0  0  0  0  0  0999 V2000
    2.0145    1.0712    4.3025 C   0  0  0  0  0  0  0  0  0  0  0  0
    2.4571    0.6998    5.5604 C   0  0  0  0  0  0  0  0  0  0  0  0
    2.9253   -0.6371    5.4324 C   0  0  0  0  0  0  0  0  0  0  0  0
    0.3462   -0.4115    1.9232 C   0  0  0  0  0  0  0  0  0  0  0  0
    3.5124   -1.5234    6.4845 C   0  0  0  0  0  0  0  0  0  0  0  0
   -0.0448   -0.9651    0.5692 C   0  0  0  0  0  0  0  0  0  0  0  0
    1.8519   -0.1744    2.1202 C   0  0  0  0  0  0  0  0  0  0  0  0
    2.7783   -1.0518    4.1704 N   0  0  0  0  0  0  0  0  0  0  0  0
    2.2386    0.0017    3.4960 N   0  0  0  0  0  0  0  0  0  0  0  0
   -0.4606   -0.1549    2.7952 O   0  0  0  0  0  0  0  0  0  0  0  0
    2.4391    1.8803    7.2938 I   0  0  0  0  0  0  0  0  0  0  0  0
    1.5585    1.9833    3.9451 H   0  0  0  0  0  0  0  0  0  0  0  0
    2.8015   -1.6830    7.3019 H   0  0  0  0  0  0  0  0  0  0  0  0
    3.7740   -2.4911    6.0517 H   0  0  0  0  0  0  0  0  0  0  0  0
    4.4123   -1.0754    6.9189 H   0  0  0  0  0  0  0  0  0  0  0  0
    0.2077   -2.0319    0.5352 H   0  0  0  0  0  0  0  0  0  0  0  0
   -1.1180   -0.8488    0.4122 H   0  0  0  0  0  0  0  0  0  0  0  0
    0.5111   -0.4765   -0.2386 H   0  0  0  0  0  0  0  0  0  0  0  0
    2.1302    0.7095    1.5322 H   0  0  0  0  0  0  0  0  0  0  0  0
    2.4217   -1.0188    1.7248 H   0  0  0  0  0  0  0  0  0  0  0  0
  1  2  2  0  0  0  0
  1  9  1  0  0  0  0
  1 12  1  0  0  0  0
  2  3  1  0  0  0  0
  2 11  1  0  0  0  0
  3  5  1  0  0  0  0
  3  8  2  0  0  0  0
  4  6  1  0  0  0  0
  4  7  1  0  0  0  0
  4 10  2  0  0  0  0
  5 13  1  0  0  0  0
  5 14  1  0  0  0  0
  5 15  1  0  0  0  0
  6 16  1  0  0  0  0
  6 17  1  0  0  0  0
  6 18  1  0  0  0  0
  7  9  1  0  0  0  0
  7 19  1  0  0  0  0
  7 20  1  0  0  0  0
  8  9  1  0  0  0  0
M  END
$$$$
