37
0 1 C15H15IN6
C                    -0.209062368709    -4.637456328693     1.484786203779
C                     1.059418882466    -4.097602592081     1.523437614169
C                     0.600367812413     6.177059751011    -1.898120114697
C                    -1.102185836318    -2.532151239027     0.648753908561
C                    -1.296021882222    -3.832864711147     1.039279355639
C                     0.652786545829    -0.743370920831     0.363231999999
C                     1.553765172871     5.260446138771    -1.438517652573
C                    -0.730727750121     5.746652958703    -1.982981279413
C                     2.036204187561    -0.806807695285     0.617596562950
C                     1.272700682707    -2.763040902943     1.125178623164
C                    -0.080945973038     3.703394553168    -1.207903631775
C                    -0.176988985597     0.326708982684    -0.125151759725
C                     3.010271675543     5.617338685746    -1.308400998796
C                    -1.836231802722     6.648624295733    -2.463435874271
C                     3.029040643979     0.292674368285     0.427586214274
N                     2.394232486416    -2.035552061317     1.077927151749
N                     1.215446264439     4.009703733214    -1.088475378675
N                    -1.078524883867     4.500829990875    -1.636169870515
N                     0.334618657953     1.479246924907    -0.413852515168
N                     0.165919720205    -2.005133425925     0.691562588036
N                    -0.505058488181     2.432926522030    -0.865969045966
I                    -3.254444391253    -4.644670972030     0.972485348666
H                    -0.381241953685    -5.663689185335     1.789660308147
H                     1.916101958490    -4.674102707798     1.855783498336
H                     0.881854517197     7.186480965177    -2.179214487497
H                    -1.901357991296    -1.889059865294     0.304401162820
H                    -1.252579835835     0.137038005937    -0.245034528423
H                     3.334321294031     5.482185958291    -0.271702588583
H                     3.614087178027     4.942842528431    -1.923590107069
H                     3.205978526932     6.648533436006    -1.611894649158
H                    -2.322345614467     6.209943690733    -3.340600912987
H                    -2.601032442629     6.749268176049    -1.686819940232
H                    -1.463739540210     7.641927676954    -2.724565502185
H                     2.764072936090     1.169037999866     1.027330671808
H                     4.021706361370    -0.062676002837     0.711026927076
H                     3.041158299385     0.635575856109    -0.611737041906
H                    -1.503949573281     2.259223435865    -0.978266763154
