
  -OEChem-12102412493D

 20 20  0     0  0  0  0  0  0999 V2000
    2.4023    1.3111    4.1885 C   0  0  0  0  0  0  0  0  0  0  0  0
    2.6558    0.8436    5.4678 C   0  0  0  0  0  0  0  0  0  0  0  0
    2.7146   -0.5736    5.3611 C   0  0  0  0  0  0  0  0  0  0  0  0
    0.4205    0.0180    1.7554 C   0  0  0  0  0  0  0  0  0  0  0  0
    2.9741   -1.5796    6.4368 C   0  0  0  0  0  0  0  0  0  0  0  0
   -0.4570   -0.3986    2.9111 C   0  0  0  0  0  0  0  0  0  0  0  0
    1.9349    0.1496    2.0012 C   0  0  0  0  0  0  0  0  0  0  0  0
    2.5060   -0.9423    4.0924 N   0  0  0  0  0  0  0  0  0  0  0  0
    2.3305    0.2106    3.3926 N   0  0  0  0  0  0  0  0  0  0  0  0
   -0.0010    0.2296    0.6319 O   0  0  0  0  0  0  0  0  0  0  0  0
    2.9223    2.0002    7.1965 I   0  0  0  0  0  0  0  0  0  0  0  0
    2.2820    2.3149    3.8046 H   0  0  0  0  0  0  0  0  0  0  0  0
    2.2316   -1.4980    7.2373 H   0  0  0  0  0  0  0  0  0  0  0  0
    2.9350   -2.5878    6.0199 H   0  0  0  0  0  0  0  0  0  0  0  0
    3.9587   -1.4239    6.8901 H   0  0  0  0  0  0  0  0  0  0  0  0
   -0.3885    0.3309    3.7258 H   0  0  0  0  0  0  0  0  0  0  0  0
   -1.4902   -0.4841    2.5731 H   0  0  0  0  0  0  0  0  0  0  0  0
   -0.1056   -1.3511    3.3210 H   0  0  0  0  0  0  0  0  0  0  0  0
    2.2907    1.0384    1.4755 H   0  0  0  0  0  0  0  0  0  0  0  0
    2.4201   -0.7218    1.5527 H   0  0  0  0  0  0  0  0  0  0  0  0
  1  2  2  0  0  0  0
  1  9  1  0  0  0  0
  1 12  1  0  0  0  0
  2  3  1  0  0  0  0
  2 11  1  0  0  0  0
  3  5  1  0  0  0  0
  3  8  2  0  0  0  0
  4  6  1  0  0  0  0
  4  7  1  0  0  0  0
  4 10  2  0  0  0  0
  5 13  1  0  0  0  0
  5 14  1  0  0  0  0
  5 15  1  0  0  0  0
  6 16  1  0  0  0  0
  6 17  1  0  0  0  0
  6 18  1  0  0  0  0
  7  9  1  0  0  0  0
  7 19  1  0  0  0  0
  7 20  1  0  0  0  0
  8  9  1  0  0  0  0
M  END
$$$$
