28
0 1 C13H11IN2O
C                     3.197732136204    -0.305175296161     1.314386167677
C                     2.076209476677     0.269961378597     1.915998779518
C                    -3.516179360853     2.652895127216     4.444164933141
C                     3.140168789571    -1.602101388775     0.797053980314
C                    -2.598657664645     1.733804902129     3.944082123643
C                     0.822337178422    -1.767206408913     1.512173574521
C                    -2.181022458480     4.409287228318     3.552480520622
C                     0.880135712574    -0.456757187389     2.009582377489
C                    -3.328209000908     4.031081005537     4.258493483044
C                     1.945906298517    -2.323924467592     0.904017993394
C                    -1.485364716181     2.242470939525     3.254046958000
C                    -0.370792614104     0.073545630834     2.657223458126
C                    -4.306252393070     5.051109307010     4.787286257054
N                    -1.278853833602     3.550940149263     3.060576123749
N                    -0.467359538561     1.444794937858     2.699562598662
O                    -1.233265269821    -0.684736895240     3.098166031113
I                     1.848775181194    -4.304918167985     0.131420689302
H                     4.127273309570     0.254011723463     1.252567511298
H                     2.161070604350     1.266703908970     2.340047370054
H                    -4.389620177363     2.292020479397     4.983799278172
H                     4.013077417852    -2.043553173116     0.327170107706
H                    -2.722621469158     0.666801798962     4.067013969095
H                    -0.104122807718    -2.320775101174     1.617744052334
H                    -1.974749732105     5.463913358079     3.371745013292
H                    -4.403687935459     4.981495028926     5.876411655848
H                    -3.986752275108     6.068651576282     4.545136950953
H                    -5.304451272044     4.903646113140     4.360201623399
H                     0.229266539825     2.000001666424     2.217233287699
