28
0 1 C13H11IN2O
C                     1.940431192965    -2.341028898528     0.902797340322
C                     0.817585585121    -1.778628630213     1.507860351621
C                    -3.513500110177     2.653838750726     4.447707488811
C                     3.134715697792    -1.618217417224     0.806462407155
C                    -2.597601061800     1.732912037297     3.948042094297
C                     2.068179011418     0.256226658179     1.931348628159
C                    -2.182215176287     4.406771403439     3.543453159583
C                     0.870944174305    -0.471993368766     2.012505510066
C                    -3.326590575911     4.031224174431     4.255539340682
C                     3.188228251086    -0.323702234816     1.330784332249
C                    -1.487062300797     2.239017989432     3.251751366093
C                    -0.377605193889     0.067873909490     2.656745473519
C                    -4.302586057559     5.052941699521     4.784823064141
N                    -1.281842589446     3.546526181605     3.051810652511
N                    -0.470190525511     1.439168582877     2.697670165705
O                    -1.243412957225    -0.687393126708     3.097092473430
I                     5.006346810021     0.778668136180     1.225938266286
H                     1.894967001704    -3.350398703127     0.502916976803
H                    -0.109824469908    -2.333742964437     1.602990919791
H                    -4.384712884251     2.295050500479     4.992327593351
H                     4.008132288569    -2.060546482129     0.338286924961
H                    -2.720957582546     0.666487351279     4.076011685627
H                     2.151070763768     1.248880659587     2.362210491702
H                    -1.976836574186     5.460588601166     3.357183972076
H                    -4.388065719307     4.993400717109     5.875580122654
H                    -3.989300977767     6.069226982413     4.529697523193
H                    -5.304729640424     4.897852368823     4.369888953088
H                     0.225287190702     1.993220609726     2.211939261298
