
  -OEChem-12122420533D

 28 29  0     0  0  0  0  0  0999 V2000
    1.9404   -2.3410    0.9028 C   0  0  0  0  0  0  0  0  0  0  0  0
    0.8176   -1.7786    1.5079 C   0  0  0  0  0  0  0  0  0  0  0  0
   -3.5135    2.6538    4.4477 C   0  0  0  0  0  0  0  0  0  0  0  0
    3.1347   -1.6182    0.8065 C   0  0  0  0  0  0  0  0  0  0  0  0
   -2.5976    1.7329    3.9480 C   0  0  0  0  0  0  0  0  0  0  0  0
    2.0682    0.2562    1.9313 C   0  0  0  0  0  0  0  0  0  0  0  0
   -2.1822    4.4068    3.5435 C   0  0  0  0  0  0  0  0  0  0  0  0
    0.8709   -0.4720    2.0125 C   0  0  0  0  0  0  0  0  0  0  0  0
   -3.3266    4.0312    4.2555 C   0  0  0  0  0  0  0  0  0  0  0  0
    3.1882   -0.3237    1.3308 C   0  0  0  0  0  0  0  0  0  0  0  0
   -1.4871    2.2390    3.2518 C   0  0  0  0  0  0  0  0  0  0  0  0
   -0.3776    0.0679    2.6567 C   0  0  0  0  0  0  0  0  0  0  0  0
   -4.3026    5.0529    4.7848 C   0  0  0  0  0  0  0  0  0  0  0  0
   -1.2818    3.5465    3.0518 N   0  0  0  0  0  0  0  0  0  0  0  0
   -0.4702    1.4392    2.6977 N   0  0  0  0  0  0  0  0  0  0  0  0
   -1.2434   -0.6874    3.0971 O   0  0  0  0  0  0  0  0  0  0  0  0
    5.0063    0.7787    1.2259 I   0  0  0  0  0  0  0  0  0  0  0  0
    1.8950   -3.3504    0.5029 H   0  0  0  0  0  0  0  0  0  0  0  0
   -0.1098   -2.3337    1.6030 H   0  0  0  0  0  0  0  0  0  0  0  0
   -4.3847    2.2951    4.9923 H   0  0  0  0  0  0  0  0  0  0  0  0
    4.0081   -2.0605    0.3383 H   0  0  0  0  0  0  0  0  0  0  0  0
   -2.7210    0.6665    4.0760 H   0  0  0  0  0  0  0  0  0  0  0  0
    2.1511    1.2489    2.3622 H   0  0  0  0  0  0  0  0  0  0  0  0
   -1.9768    5.4606    3.3572 H   0  0  0  0  0  0  0  0  0  0  0  0
   -4.3881    4.9934    5.8756 H   0  0  0  0  0  0  0  0  0  0  0  0
   -3.9893    6.0692    4.5297 H   0  0  0  0  0  0  0  0  0  0  0  0
   -5.3047    4.8979    4.3699 H   0  0  0  0  0  0  0  0  0  0  0  0
    0.2253    1.9932    2.2119 H   0  0  0  0  0  0  0  0  0  0  0  0
  1  2  1  0  0  0  0
  1  4  2  0  0  0  0
  1 18  1  0  0  0  0
  2  8  2  0  0  0  0
  2 19  1  0  0  0  0
  3  5  2  0  0  0  0
  3  9  1  0  0  0  0
  3 20  1  0  0  0  0
  4 10  1  0  0  0  0
  4 21  1  0  0  0  0
  5 11  1  0  0  0  0
  5 22  1  0  0  0  0
  6  8  1  0  0  0  0
  6 10  2  0  0  0  0
  6 23  1  0  0  0  0
  7  9  2  0  0  0  0
  7 14  1  0  0  0  0
  7 24  1  0  0  0  0
  8 12  1  0  0  0  0
  9 13  1  0  0  0  0
 10 17  1  0  0  0  0
 11 14  2  0  0  0  0
 11 15  1  0  0  0  0
 12 15  1  0  0  0  0
 12 16  2  0  0  0  0
 13 25  1  0  0  0  0
 13 26  1  0  0  0  0
 13 27  1  0  0  0  0
 15 28  1  0  0  0  0
M  END
$$$$
