39
0 1 C19H15IN4
C                     6.551238453668    -8.385496054970     3.950568756725
C                     5.769007197992    -9.040093916181     2.964818358873
C                     6.887033763608    -7.055358652445     3.799101162482
C                     5.335964034236    -8.354046238407     1.848536225933
C                     6.779961343285    -4.948287560841     2.475230541075
C                     6.343316202551    -4.258525937482     1.368816441257
C                    12.196663606170    -3.254213834034    -3.000190997850
C                    11.364534278636    -2.620144698905    -3.898439742540
C                     5.252973902552    -6.254451298934     0.515671491690
C                    10.273288953603    -3.962993334913    -1.684748417832
C                     6.458178042622    -6.323541633370     2.659776357160
C                     5.666591082031    -6.983471574116     1.664994438936
C                     5.575800095078    -4.919870633501     0.365554627569
C                    11.630128855141    -3.931774996337    -1.882909968839
C                     8.069828270118    -3.185602574310    -2.632147284726
C                     7.820692306098    -2.428445317116    -3.790247895453
C                     9.968459982759    -2.642053418609    -3.705998348466
C                     7.201279649295    -3.739744942293    -1.621930166869
C                     6.488089763288    -1.994619203927    -4.308694598815
N                     8.979341837637    -2.106776472191    -4.429018531970
N                     5.915394410548    -3.709403323353    -1.764391799998
N                     9.454986730244    -3.320254202698    -2.582505017132
N                     5.103008213777    -4.166945269962    -0.745788048868
I                    12.893959077851    -4.920476017522    -0.495138595691
H                     6.884394063636    -8.936740246372     4.825844447587
H                     5.511290974758   -10.088091508700     3.093331547493
H                     7.485726063385    -6.550769951916     4.554044834362
H                     4.736515423806    -8.857691638223     1.093584462933
H                     7.361547095418    -4.436783270893     3.238711592939
H                     6.551999495165    -3.198711246338     1.254523355561
H                    13.271795776186    -3.241926688459    -3.140679133365
H                    11.752573963393    -2.095070029812    -4.764750181891
H                     4.676546083025    -6.762177253015    -0.255378328901
H                     9.803750279164    -4.475597186312    -0.855517065791
H                     7.673190048366    -4.177192564392    -0.739354756849
H                     5.889749159976    -1.535201943243    -3.516441351198
H                     6.630125054214    -1.285653623173    -5.126982142797
H                     5.912188115245    -2.851854867961    -4.673661151750
H                     4.233205411214    -4.500792943178    -1.143568928263
