
  -OEChem-12102412493D

 20 20  0     0  0  0  0  0  0999 V2000
    2.9145   -0.6880    5.4084 C   0  0  0  0  0  0  0  0  0  0  0  0
    2.5262    0.6670    5.5358 C   0  0  0  0  0  0  0  0  0  0  0  0
    2.0895    1.0629    4.2757 C   0  0  0  0  0  0  0  0  0  0  0  0
    0.3650   -0.4037    1.8910 C   0  0  0  0  0  0  0  0  0  0  0  0
    1.5359    2.3576    3.7802 C   0  0  0  0  0  0  0  0  0  0  0  0
   -0.0279   -0.9498    0.5349 C   0  0  0  0  0  0  0  0  0  0  0  0
    1.8732   -0.2109    2.1053 C   0  0  0  0  0  0  0  0  0  0  0  0
    2.7397   -1.1172    4.1605 N   0  0  0  0  0  0  0  0  0  0  0  0
    2.2505   -0.0398    3.4851 N   0  0  0  0  0  0  0  0  0  0  0  0
   -0.4445   -0.1230    2.7539 O   0  0  0  0  0  0  0  0  0  0  0  0
    2.5982    1.8430    7.2721 I   0  0  0  0  0  0  0  0  0  0  0  0
    3.3124   -1.3514    6.1654 H   0  0  0  0  0  0  0  0  0  0  0  0
    2.0789    2.7189    2.8995 H   0  0  0  0  0  0  0  0  0  0  0  0
    0.4796    2.2513    3.5148 H   0  0  0  0  0  0  0  0  0  0  0  0
    1.6204    3.1171    4.5595 H   0  0  0  0  0  0  0  0  0  0  0  0
    0.1952   -2.0233    0.5066 H   0  0  0  0  0  0  0  0  0  0  0  0
   -1.0960   -0.8047    0.3674 H   0  0  0  0  0  0  0  0  0  0  0  0
    0.5490   -0.4796   -0.2689 H   0  0  0  0  0  0  0  0  0  0  0  0
    2.1863    0.6576    1.5124 H   0  0  0  0  0  0  0  0  0  0  0  0
    2.4196   -1.0768    1.7235 H   0  0  0  0  0  0  0  0  0  0  0  0
  1  2  1  0  0  0  0
  1  8  2  0  0  0  0
  1 12  1  0  0  0  0
  2  3  2  0  0  0  0
  2 11  1  0  0  0  0
  3  5  1  0  0  0  0
  3  9  1  0  0  0  0
  4  6  1  0  0  0  0
  4  7  1  0  0  0  0
  4 10  2  0  0  0  0
  5 13  1  0  0  0  0
  5 14  1  0  0  0  0
  5 15  1  0  0  0  0
  6 16  1  0  0  0  0
  6 17  1  0  0  0  0
  6 18  1  0  0  0  0
  7  9  1  0  0  0  0
  7 19  1  0  0  0  0
  7 20  1  0  0  0  0
  8  9  1  0  0  0  0
M  END
$$$$
