20
0 1 C7H9IN2O
C                     2.206447169158     1.130066606600     4.249614630297
C                     2.676576220152     0.755197613439     5.496445950592
C                     2.851990739502    -0.655192746356     5.441466025935
C                     2.908162408279     0.249533492524     1.182459637879
C                     3.336121480817    -1.576208388016     6.515833550757
C                     2.762102655873    -0.240779710811    -0.242592338553
C                     1.775215728251    -0.166186578981     2.134519407685
N                     2.505866747676    -1.110096913907     4.233419167056
N                     2.102465080244    -0.016146546099     3.528659253935
O                     3.839490565461     0.933831223597     1.558468992054
I                     3.045834283847     2.019856300116     7.128143680999
H                     1.963449422652     2.099424025817     3.838572554127
H                     2.683197581751    -1.534007542653     7.393981716062
H                     3.359429133395    -2.602226573339     6.143096056942
H                     4.342419840342    -1.297190596551     6.845212571142
H                     1.727396925948    -0.154594412420    -0.592140535565
H                     3.430463887157     0.315576168401    -0.901197013185
H                     3.027996931891    -1.304203062443    -0.280290870124
H                     1.508705500544    -1.213036608384     1.969938082482
H                     0.892832875235     0.437218583619     1.886045185059
