
  -OEChem-12102412493D

 39 42  0     0  0  0  0  0  0999 V2000
   -1.0857   -5.2254   -0.7699 C   0  0  0  0  0  0  0  0  0  0  0  0
   -0.7328   -6.4709   -1.3520 C   0  0  0  0  0  0  0  0  0  0  0  0
   -0.1528   -4.2108   -0.6961 C   0  0  0  0  0  0  0  0  0  0  0  0
    0.5380   -6.6790   -1.8469 C   0  0  0  0  0  0  0  0  0  0  0  0
    2.1504   -3.3721   -1.1376 C   0  0  0  0  0  0  0  0  0  0  0  0
    3.4210   -3.5643   -1.6263 C   0  0  0  0  0  0  0  0  0  0  0  0
    8.8465    0.3725   -1.6496 C   0  0  0  0  0  0  0  0  0  0  0  0
    9.8509   -0.3606   -2.2477 C   0  0  0  0  0  0  0  0  0  0  0  0
    2.8360   -5.8343   -2.2836 C   0  0  0  0  0  0  0  0  0  0  0  0
    7.2870   -1.4780   -1.9286 C   0  0  0  0  0  0  0  0  0  0  0  0
    1.1633   -4.3943   -1.1966 C   0  0  0  0  0  0  0  0  0  0  0  0
    1.5218   -5.6514   -1.7851 C   0  0  0  0  0  0  0  0  0  0  0  0
    3.7759   -4.8158   -2.2105 C   0  0  0  0  0  0  0  0  0  0  0  0
    7.5554   -0.2045   -1.4943 C   0  0  0  0  0  0  0  0  0  0  0  0
    8.3147   -3.4835   -3.0477 C   0  0  0  0  0  0  0  0  0  0  0  0
    9.6293   -3.6656   -3.5129 C   0  0  0  0  0  0  0  0  0  0  0  0
    9.5912   -1.6691   -2.6997 C   0  0  0  0  0  0  0  0  0  0  0  0
    7.2021   -4.3899   -3.0838 C   0  0  0  0  0  0  0  0  0  0  0  0
   10.1935   -4.8732   -4.1960 C   0  0  0  0  0  0  0  0  0  0  0  0
   10.3918   -2.5608   -3.2969 N   0  0  0  0  0  0  0  0  0  0  0  0
    6.0263   -4.0921   -2.6242 N   0  0  0  0  0  0  0  0  0  0  0  0
    8.2974   -2.1945   -2.5237 N   0  0  0  0  0  0  0  0  0  0  0  0
    5.0566   -5.0260   -2.7169 N   0  0  0  0  0  0  0  0  0  0  0  0
    5.9984    0.9069   -0.5768 I   0  0  0  0  0  0  0  0  0  0  0  0
   -2.0905   -5.0758   -0.3841 H   0  0  0  0  0  0  0  0  0  0  0  0
   -1.4728   -7.2654   -1.4066 H   0  0  0  0  0  0  0  0  0  0  0  0
   -0.4164   -3.2537   -0.2512 H   0  0  0  0  0  0  0  0  0  0  0  0
    0.8021   -7.6359   -2.2919 H   0  0  0  0  0  0  0  0  0  0  0  0
    1.8891   -2.4143   -0.6935 H   0  0  0  0  0  0  0  0  0  0  0  0
    4.1599   -2.7746   -1.5745 H   0  0  0  0  0  0  0  0  0  0  0  0
    9.0370    1.3812   -1.2994 H   0  0  0  0  0  0  0  0  0  0  0  0
   10.8491    0.0412   -2.3849 H   0  0  0  0  0  0  0  0  0  0  0  0
    3.1026   -6.7917   -2.7289 H   0  0  0  0  0  0  0  0  0  0  0  0
    6.3341   -1.9775   -1.8438 H   0  0  0  0  0  0  0  0  0  0  0  0
    7.4064   -5.3688   -3.5343 H   0  0  0  0  0  0  0  0  0  0  0  0
   10.0885   -4.7913   -5.2843 H   0  0  0  0  0  0  0  0  0  0  0  0
   11.2594   -4.9555   -3.9713 H   0  0  0  0  0  0  0  0  0  0  0  0
    9.6978   -5.7949   -3.8789 H   0  0  0  0  0  0  0  0  0  0  0  0
    5.2800   -5.9435   -3.0992 H   0  0  0  0  0  0  0  0  0  0  0  0
  1  2  1  0  0  0  0
  1  3  2  0  0  0  0
  1 25  1  0  0  0  0
  2  4  2  0  0  0  0
  2 26  1  0  0  0  0
  3 11  1  0  0  0  0
  3 27  1  0  0  0  0
  4 12  1  0  0  0  0
  4 28  1  0  0  0  0
  5  6  2  0  0  0  0
  5 11  1  0  0  0  0
  5 29  1  0  0  0  0
  6 13  1  0  0  0  0
  6 30  1  0  0  0  0
  7  8  2  0  0  0  0
  7 14  1  0  0  0  0
  7 31  1  0  0  0  0
  8 17  1  0  0  0  0
  8 32  1  0  0  0  0
  9 12  1  0  0  0  0
  9 13  2  0  0  0  0
  9 33  1  0  0  0  0
 10 14  2  0  0  0  0
 10 22  1  0  0  0  0
 10 34  1  0  0  0  0
 11 12  2  0  0  0  0
 13 23  1  0  0  0  0
 14 24  1  0  0  0  0
 15 16  2  0  0  0  0
 15 18  1  0  0  0  0
 15 22  1  0  0  0  0
 16 19  1  0  0  0  0
 16 20  1  0  0  0  0
 17 20  2  0  0  0  0
 17 22  1  0  0  0  0
 18 21  2  0  0  0  0
 18 35  1  0  0  0  0
 19 36  1  0  0  0  0
 19 37  1  0  0  0  0
 19 38  1  0  0  0  0
 21 23  1  0  0  0  0
 23 39  1  0  0  0  0
M  END
$$$$
