
  -OEChem-12102412493D

 20 20  0     0  0  0  0  0  0999 V2000
    2.9025   -0.6061    5.4977 C   0  0  0  0  0  0  0  0  0  0  0  0
    2.6953    0.7906    5.3904 C   0  0  0  0  0  0  0  0  0  0  0  0
    2.1431    1.0005    4.1306 C   0  0  0  0  0  0  0  0  0  0  0  0
    2.7987   -0.3449    1.1850 C   0  0  0  0  0  0  0  0  0  0  0  0
    1.7119    2.2456    3.4266 C   0  0  0  0  0  0  0  0  0  0  0  0
    4.2222   -0.4326    1.6826 C   0  0  0  0  0  0  0  0  0  0  0  0
    1.6733   -0.5636    2.2114 C   0  0  0  0  0  0  0  0  0  0  0  0
    2.5122   -1.2308    4.3881 N   0  0  0  0  0  0  0  0  0  0  0  0
    2.0419   -0.2455    3.5751 N   0  0  0  0  0  0  0  0  0  0  0  0
    2.5041   -0.1410    0.0203 O   0  0  0  0  0  0  0  0  0  0  0  0
    3.1187    2.2458    6.8415 I   0  0  0  0  0  0  0  0  0  0  0  0
    3.3079   -1.1673    6.3296 H   0  0  0  0  0  0  0  0  0  0  0  0
    2.2399    2.3797    2.4761 H   0  0  0  0  0  0  0  0  0  0  0  0
    0.6377    2.2334    3.2115 H   0  0  0  0  0  0  0  0  0  0  0  0
    1.9198    3.1141    4.0538 H   0  0  0  0  0  0  0  0  0  0  0  0
    4.3693   -1.3580    2.2490 H   0  0  0  0  0  0  0  0  0  0  0  0
    4.9101   -0.3823    0.8379 H   0  0  0  0  0  0  0  0  0  0  0  0
    4.4309    0.3878    2.3786 H   0  0  0  0  0  0  0  0  0  0  0  0
    1.4023   -1.6229    2.1904 H   0  0  0  0  0  0  0  0  0  0  0  0
    0.8029    0.0171    1.8999 H   0  0  0  0  0  0  0  0  0  0  0  0
  1  2  1  0  0  0  0
  1  8  2  0  0  0  0
  1 12  1  0  0  0  0
  2  3  2  0  0  0  0
  2 11  1  0  0  0  0
  3  5  1  0  0  0  0
  3  9  1  0  0  0  0
  4  6  1  0  0  0  0
  4  7  1  0  0  0  0
  4 10  2  0  0  0  0
  5 13  1  0  0  0  0
  5 14  1  0  0  0  0
  5 15  1  0  0  0  0
  6 16  1  0  0  0  0
  6 17  1  0  0  0  0
  6 18  1  0  0  0  0
  7  9  1  0  0  0  0
  7 19  1  0  0  0  0
  7 20  1  0  0  0  0
  8  9  1  0  0  0  0
M  END
$$$$
