37
0 1 C15H15IN6
C                     4.620835205887    -0.943995326078     1.101293691167
C                     3.764402446559    -2.006683671731     1.298997202256
C                     0.695424893743     6.092687985255    -1.851618079923
C                     2.772147497686     0.450808552903     0.334134164466
C                     4.106090229408     0.289207437330     0.614260137679
C                     0.555592943261    -0.758612208768     0.347230554291
C                     1.578252514913     5.112067447160    -1.382489369652
C                    -0.658374075079     5.750099807382    -1.971810110366
C                     0.266696027118    -2.079250679274     0.725784875132
C                     2.391501021824    -1.861248882902     1.017249581356
C                    -0.162353721985     3.662125821710    -1.209459460400
C                    -0.308120643598     0.283410576160    -0.138052216396
C                     3.051555530886     5.368160456342    -1.213704768697
C                    -1.691457390010     6.727393815821    -2.465591641684
C                    -1.064220705269    -2.764821986432     0.715594811218
N                     1.386043673056    -2.737984282641     1.129901286348
N                     1.149711574990     3.883040463455    -1.056884139503
N                    -1.095774658615     4.525082563447    -1.649017806347
N                     0.169798673828     1.445944845229    -0.434003673311
N                     1.931540814739    -0.621503981015     0.537448636772
N                    -0.654189315238     2.411175184921    -0.887511739085
I                     5.418772954477     1.929662674858     0.307412043562
H                     5.679488855773    -1.045158323946     1.314838921115
H                     4.114093087492    -2.964539646528     1.668801826633
H                     1.047227766680     7.085069381023    -2.113527233494
H                     2.318620921293     1.360370439593    -0.037834720617
H                    -1.371770922293     0.036460505611    -0.239533556690
H                     3.341362028569     5.195832807583    -0.172511389671
H                     3.623404575804     4.660318974987    -1.821744497058
H                     3.323227199644     6.387532932623    -1.498228590830
H                    -2.183461155780     6.331564176847    -3.359707559984
H                    -2.466778554417     6.867773062541    -1.705755440736
H                    -1.249677309419     7.697609454638    -2.704482539110
H                    -1.051069730816    -3.608362549546     0.017457905437
H                    -1.287860466770    -3.167081133807     1.708574097857
H                    -1.874401799436    -2.091769032956     0.425373951903
H                    -1.655363879378     2.265139229613    -1.010915298394
