
  -OEChem-12102412493D

 28 29  0     0  0  0  0  0  0999 V2000
   -4.8721   -3.3246   -0.5059 C   0  0  0  0  0  0  0  0  0  0  0  0
   -6.1495   -3.9683   -0.5597 C   0  0  0  0  0  0  0  0  0  0  0  0
    0.8058    0.6317    2.0342 C   0  0  0  0  0  0  0  0  0  0  0  0
   -4.7871   -2.7010    0.7188 C   0  0  0  0  0  0  0  0  0  0  0  0
    0.0704   -0.1486    1.1420 C   0  0  0  0  0  0  0  0  0  0  0  0
    0.2188    0.9372    3.2744 C   0  0  0  0  0  0  0  0  0  0  0  0
   -6.7505   -3.6894    0.6383 C   0  0  0  0  0  0  0  0  0  0  0  0
   -1.6311   -0.2519    2.6572 C   0  0  0  0  0  0  0  0  0  0  0  0
   -3.7219   -1.9126    1.2927 C   0  0  0  0  0  0  0  0  0  0  0  0
    0.5996   -0.5366   -0.2124 C   0  0  0  0  0  0  0  0  0  0  0  0
    0.9263    1.7716    4.3087 C   0  0  0  0  0  0  0  0  0  0  0  0
   -1.1606   -0.5979    1.4507 N   0  0  0  0  0  0  0  0  0  0  0  0
   -1.0009    0.4962    3.5888 N   0  0  0  0  0  0  0  0  0  0  0  0
   -3.8573   -1.4139    2.4794 N   0  0  0  0  0  0  0  0  0  0  0  0
   -2.8861   -0.6667    3.0624 N   0  0  0  0  0  0  0  0  0  0  0  0
   -5.9460   -2.9244    1.4283 O   0  0  0  0  0  0  0  0  0  0  0  0
   -8.6095   -4.2224    1.4091 I   0  0  0  0  0  0  0  0  0  0  0  0
   -4.1095   -3.3209   -1.2739 H   0  0  0  0  0  0  0  0  0  0  0  0
   -6.5683   -4.5543   -1.3657 H   0  0  0  0  0  0  0  0  0  0  0  0
    1.7975    0.9912    1.7804 H   0  0  0  0  0  0  0  0  0  0  0  0
   -2.8370   -1.7772    0.6770 H   0  0  0  0  0  0  0  0  0  0  0  0
    0.6341   -1.6273   -0.3010 H   0  0  0  0  0  0  0  0  0  0  0  0
   -0.0723   -0.1691   -0.9947 H   0  0  0  0  0  0  0  0  0  0  0  0
    1.6003   -0.1353   -0.3877 H   0  0  0  0  0  0  0  0  0  0  0  0
    0.3306    2.6595    4.5427 H   0  0  0  0  0  0  0  0  0  0  0  0
    1.0350    1.2019    5.2368 H   0  0  0  0  0  0  0  0  0  0  0  0
    1.9151    2.0874    3.9681 H   0  0  0  0  0  0  0  0  0  0  0  0
   -3.1386   -0.3481    3.9893 H   0  0  0  0  0  0  0  0  0  0  0  0
  1  2  1  0  0  0  0
  1  4  2  0  0  0  0
  1 18  1  0  0  0  0
  2  7  2  0  0  0  0
  2 19  1  0  0  0  0
  3  5  1  0  0  0  0
  3  6  2  0  0  0  0
  3 20  1  0  0  0  0
  4  9  1  0  0  0  0
  4 16  1  0  0  0  0
  5 10  1  0  0  0  0
  5 12  2  0  0  0  0
  6 11  1  0  0  0  0
  6 13  1  0  0  0  0
  7 16  1  0  0  0  0
  7 17  1  0  0  0  0
  8 12  1  0  0  0  0
  8 13  2  0  0  0  0
  8 15  1  0  0  0  0
  9 14  2  0  0  0  0
  9 21  1  0  0  0  0
 10 22  1  0  0  0  0
 10 23  1  0  0  0  0
 10 24  1  0  0  0  0
 11 25  1  0  0  0  0
 11 26  1  0  0  0  0
 11 27  1  0  0  0  0
 14 15  1  0  0  0  0
 15 28  1  0  0  0  0
M  END
$$$$
