20
0 1 C7H9IN2O
C                     2.818624756383    -0.538116484871     5.575605061526
C                     2.267495788027     0.764598346043     5.509361171306
C                     1.997991480953     0.998693289242     4.164491459361
C                     0.770835546155    -0.945068370459     1.791452832447
C                     1.409567732655     2.175227936273     3.456365227748
C                    -0.025251553311    -1.586768838936     2.903267392078
C                     2.194874232897    -0.466046702819     2.123384751866
N                     2.889922241339    -1.086021356403     4.363799837927
N                     2.401782273556    -0.137367127703     3.518343902024
O                     0.355122555041    -0.817203392172     0.653143105433
I                     1.939078753601     2.080350939239     7.110350293085
H                     3.164754346904    -1.082049907896     6.444940605904
H                     2.121608515641     2.615364842248     2.749547476749
H                     0.508473295180     1.904121767448     2.895231386334
H                     1.136984011098     2.943341754696     4.182095534127
H                    -0.244255701280    -0.850814072124     3.685197265457
H                    -0.957475009540    -1.987172468757     2.503530043992
H                     0.562447312169    -2.376136149841     3.383301830815
H                     2.430732241100     0.387634657812     1.485095735405
H                     2.886436117127    -1.277049312855     1.878226935737
