28
0 1 C13FH10IN2O
C                     5.851141994092    -0.328240913667    -1.132624188852
C                     4.911302995164    -2.298670358356    -2.184458183854
C                     6.136708088951     0.215718412583    -2.384626491264
C                     5.170252248925    -1.760676753725    -3.444123781917
C                     6.117279654585    -6.784057349524    -0.465877323777
C                     7.604440075420    -5.021812416178    -1.150562412568
C                     5.255182751730    -1.591737209682    -1.023100228099
C                     5.272557856809    -5.826653286773     0.095004137151
C                     5.789710901811    -0.515208890264    -3.517673635585
C                     7.294679384644    -6.382176008218    -1.105532644046
C                     5.683233827017    -4.476789237356    -0.008790093853
C                     4.930380526830    -2.095050508465     0.341519075863
C                     3.978565755489    -6.204697496659     0.769515301932
N                     6.818693230945    -4.093851244251    -0.595811570170
N                     4.857693792944    -3.478451306486     0.544323558924
O                     4.635841872524    -1.340588409014     1.263445336250
F                     6.058266616400     0.007003469879    -4.740082401004
I                     8.594032844873    -7.808142863255    -1.991825428718
H                     6.089701219118     0.219526064868    -0.226624273343
H                     4.427109154758    -3.267107681281    -2.110753778690
H                     6.611321546382     1.185981470970    -2.492811459046
H                     4.904006990830    -2.285516642764    -4.356248722553
H                     5.846406561863    -7.834747861367    -0.416646258626
H                     8.512556366390    -4.665356583280    -1.631010392711
H                     4.010883973022    -6.004661684640     1.848226599055
H                     3.138523323618    -5.635163268656     0.357662388689
H                     3.767047761101    -7.268978237083     0.642600450743
H                     4.436501028936    -3.695699162919     1.442390917541
