21   
torsion grid (-165,)
C        0.3085902146   -0.6024785958    1.5987140205
C       -0.1865166714   -1.3470520179    0.3519041673
C        0.3895917696   -2.7683878050    0.2946516977
C        0.1569224306   -0.5714338076   -0.9420268106
C       -0.5588325641    0.7485544130   -1.0556674173
C       -0.0417712111    1.9779726242   -0.9069369148
C        1.3894899364    2.3352516084   -0.6019605247
H       -0.1094640780    0.4071137472    1.6527647416
H        0.0293593946   -1.1370707422    2.5134988436
H        1.4022608383   -0.5126234505    1.5857687441
H       -1.2812350026   -1.4251145640    0.4138987498
H        0.0060136107   -3.3214245245   -0.5702624006
H        0.1357035764   -3.3360972797    1.1968255120
H        1.4836351538   -2.7424568824    0.2159955071
H        1.2433963138   -0.4372888873   -0.9911977683
H       -0.1187665196   -1.1957977562   -1.8024767458
H       -1.6289458252    0.6773053862   -1.2573653043
H       -0.7208876944    2.8243346799   -1.0153273275
H        2.0755477831    1.4995714634   -0.7580441931
H        1.4965564694    2.6668919870    0.4391159654
H        1.7239136607    3.1654900763   -1.2348328356
21   
torsion grid (-150,)
C        0.3346526811   -0.5908025876    1.6143415838
C       -0.1472458364   -1.3640098451    0.3797848869
C        0.4629922835   -2.7715800963    0.3391318594
C        0.1718136132   -0.5979480019   -0.9260473830
C       -0.5686526051    0.7070447441   -1.0491001495
C       -0.0608248869    1.9438496734   -0.9349865774
C        1.3801695418    2.3077129461   -0.6725195520
H       -0.1080984584    0.4088545864    1.6566495044
H        0.0723709464   -1.1195643952    2.5374994711
H        1.4257190546   -0.4746436981    1.5950285568
H       -1.2394750248   -1.4678115905    0.4477316874
H        0.0898904659   -3.3452633187   -0.5168634981
H        0.2260743095   -3.3331132652    1.2497521892
H        1.5557835694   -2.7201655714    0.2559603730
H        1.2550338022   -0.4409102676   -0.9824956153
H       -0.0970617410   -1.2387551415   -1.7766751676
H       -1.6420582728    0.6178807149   -1.2241563937
H       -0.7496468660    2.7818131385   -1.0423068336
H        2.0778782156    1.5682032200   -1.0749725492
H        1.5776138479    2.4006520476    0.4033270882
H        1.6243738651    3.2731872301   -1.1275972042
21   
torsion grid (-135,)
C        0.3203304430   -0.5718785634    1.6334678916
C       -0.1364114759   -1.3582607768    0.3976144576
C        0.5017522068   -2.7535957226    0.3664598932
C        0.1765988277   -0.5896065299   -0.9078435208
C       -0.5897881323    0.6990970386   -1.0406816999
C       -0.0891507222    1.9416568407   -0.9701963910
C        1.3628913621    2.3060393578   -0.7559239731
H       -0.1360301201    0.4221843525    1.6647163485
H        0.0540570337   -1.0986739014    2.5566067159
H        1.4100104395   -0.4420985033    1.6265926407
H       -1.2268908358   -1.4834860160    0.4575820061
H        0.1456616086   -3.3377863553   -0.4896673397
H        0.2700075417   -3.3162192246    1.2777481287
H        1.5938201033   -2.6808574705    0.2901667536
H        1.2562245555   -0.4064883637   -0.9570395451
H       -0.0712715035   -1.2390363660   -1.7586325894
H       -1.6660218503    0.5921692494   -1.1855460596
H       -0.7852406006    2.7732142207   -1.0754123027
H        2.0348480085    1.7076910086   -1.3796771616
H        1.6653451047    2.1568480412    0.2880296263
H        1.5407189661    3.3577917876   -0.9983535408
21   
torsion grid (-120,)
C        0.2981480202   -0.5763774669    1.6608076813
C       -0.1336135153   -1.3614712448    0.4151288600
C        0.5149294493   -2.7520785622    0.3890187716
C        0.1928353834   -0.5850367431   -0.8818316151
C       -0.5859144286    0.6951088996   -1.0250414232
C       -0.0868289654    1.9394977443   -0.9924713561
C        1.3715366378    2.3020723513   -0.8109100827
H       -0.1580301016    0.4180768912    1.6837231409
H        0.0132147515   -1.1036990481    2.5780481703
H        1.3878798244   -0.4475389666    1.6765274364
H       -1.2239937096   -1.4947706075    0.4577606898
H        0.1747882111   -3.3364023117   -0.4734815091
H        0.2748934459   -3.3189327834    1.2955325327
H        1.6073799160   -2.6712911989    0.3278306000
H        1.2706841340   -0.3881102348   -0.9156245765
H       -0.0332101894   -1.2340651209   -1.7392639193
H       -1.6637545584    0.5794823149   -1.1499156391
H       -0.7847877222    2.7685780080   -1.1027157321
H        1.9979665445    1.8856545512   -1.6083059099
H        1.7666987137    1.9257603389    0.1396050002
H        1.5101794512    3.3866154210   -0.8181188277
21   
torsion grid (-105,)
C        0.3161166029   -0.5735266406    1.6968189784
C       -0.1120178627   -1.3606966203    0.4511857068
C        0.5361229303   -2.7515473469    0.4293948627
C        0.2179395844   -0.5860496126   -0.8455348317
C       -0.5655216647    0.6904755732   -0.9968105013
C       -0.0742748123    1.9384300138   -0.9922545205
C        1.3804367830    2.3204682053   -0.8318359090
H       -0.1373882514    0.4222297169    1.7152346277
H        0.0260835152   -1.0978323749    2.6141889566
H        1.4061106506   -0.4471832643    1.7172846470
H       -1.2025953605   -1.4936634725    0.4907280382
H        0.1980255413   -3.3373657262   -0.4329071991
H        0.2936130909   -3.3166854811    1.3363206500
H        1.6287657351   -2.6713003069    0.3708612087
H        1.2953485253   -0.3872774461   -0.8789628560
H       -0.0033452142   -1.2368071436   -1.7029791125
H       -1.6440293425    0.5677555706   -1.1093335573
H       -0.7802085441    2.7601080675   -1.1089797561
H        1.9521896989    2.1296270606   -1.7487780582
H        1.8641243111    1.7554127166   -0.0286561653
H        1.4832391183    3.3838310523   -0.5978462805
21   
torsion grid (-90,)
C        0.3117921222   -0.5388306110    1.6960959642
C       -0.1209038410   -1.3421858803    0.4624891806
C        0.5120004969   -2.7402234650    0.4662238024
C        0.2220181885   -0.5932117054   -0.8457856393
C       -0.5501901201    0.6870906290   -1.0229027432
C       -0.0613951246    1.9361922455   -1.0396319712
C        1.3841990436    2.3408639062   -0.8790322989
H       -0.1325614133    0.4611396180    1.6974613765
H        0.0154351180   -1.0457706194    2.6211749648
H        1.4028140924   -0.4213658094    1.7167578001
H       -1.2130043917   -1.4626444755    0.5004762968
H        0.1713475477   -3.3362382594   -0.3880597043
H        0.2592844432   -3.2879194788    1.3810227296
H        1.6057250208   -2.6729383024    0.4114762301
H        1.3016543396   -0.4085045347   -0.8798636242
H       -0.0032748879   -1.2558585526   -1.6929484786
H       -1.6286053438    0.5654093640   -1.1387150795
H       -0.7715106436    2.7523246097   -1.1732862628
H        1.8947967686    2.3933419972   -1.8496098612
H        1.9434126207    1.6357000281   -0.2580461776
H        1.4631704929    3.3295664180   -0.4161659091
21   
torsion grid (-75,)
C        0.3424935677   -0.5466208445    1.7168228011
C       -0.1030606145   -1.3552787062    0.4913659164
C        0.5161425079   -2.7594214477    0.5034993505
C        0.2428696662   -0.6202252415   -0.8242881747
C       -0.5205391230    0.6644009111   -1.0099155800
C       -0.0371169081    1.9159677263   -1.0062808622
C        1.3956710017    2.3398675660   -0.8113777744
H       -0.0938211483    0.4568034505    1.7132432391
H        0.0468434957   -1.0446381395    2.6469600216
H        1.4344821961   -0.4373836853    1.7308716255
H       -1.1961100638   -1.4646430016    0.5344596293
H        0.1658585582   -3.3588309884   -0.3444947220
H        0.2621952626   -3.2973223966    1.4237463252
H        1.6102301013   -2.7033378497    0.4433943067
H        1.3240801229   -0.4468445669   -0.8612592892
H        0.0098468620   -1.2879398996   -1.6651305319
H       -1.5963746605    0.5435031251   -1.1487751067
H       -0.7497063183    2.7292305352   -1.1481167949
H        1.8441099494    2.6622789122   -1.7602994987
H        2.0184086927    1.5373199563   -0.4094059090
H        1.4571230587    3.1896317051   -0.1221042089
21   
torsion grid (-60,)
C        0.3504149198   -0.5268042666    1.7023518529
C       -0.1104061810   -1.3485543240    0.4913925190
C        0.4912386195   -2.7600482326    0.5228510157
C        0.2403423491   -0.6388376982   -0.8373902295
C       -0.5067709241    0.6529348441   -1.0399932696
C       -0.0189210796    1.9024026215   -1.0019616096
C        1.4041793934    2.3232851575   -0.7492148533
H       -0.0779095615    0.4798870563    1.6879533857
H        0.0569725735   -1.0096126772    2.6411669591
H        1.4432825034   -0.4262055738    1.7072475193
H       -1.2045196646   -1.4432771161    0.5403437162
H        0.1308838662   -3.3676819924   -0.3150022821
H        0.2333710366   -3.2808132277    1.4518220581
H        1.5857594679   -2.7185950010    0.4587712340
H        1.3237788099   -0.4808350016   -0.8775722756
H       -0.0036491785   -1.3168743823   -1.6664579412
H       -1.5776787888    0.5405060050   -1.2180363106
H       -0.7221835740    2.7204324193   -1.1632594123
H        1.7995703971    2.8935331370   -1.5992296601
H        2.0706450899    1.4766254516   -0.5718117810
H        1.4605580236    2.9820953989    0.1264591816
21   
torsion grid (-45,)
C        0.3395818612   -0.5151047560    1.6843895769
C       -0.1237412622   -1.3463033169    0.4808566780
C        0.4680399835   -2.7615302653    0.5287560335
C        0.2363040141   -0.6539910366   -0.8550811938
C       -0.4920518721    0.6463772551   -1.0700270471
C        0.0081959957    1.8894624600   -0.9964282401
C        1.4284998834    2.2855916701   -0.6895154127
H       -0.0886325117    0.4914471640    1.6626848530
H        0.0470143850   -0.9903345179    2.6273380488
H        1.4324393677   -0.4149675480    1.6866445051
H       -1.2185823481   -1.4328075989    0.5276512022
H        0.1063320099   -3.3751943081   -0.3040981981
H        0.2033290641   -3.2709637029    1.4620710766
H        1.5630272618   -2.7282349072    0.4680643280
H        1.3219486710   -0.5098537496   -0.8928767774
H       -0.0153391746   -1.3374131798   -1.6771741783
H       -1.5574723931    0.5482306510   -1.2848488700
H       -0.6783042516    2.7179811511   -1.1741881295
H        1.7724179824    3.0663388076   -1.3777212843
H        2.1250740324    1.4462470311   -0.7463591491
H        1.5012249792    2.7070718427    0.3219978404
21   
torsion grid (-30,)
C        0.3211727209   -0.4903077625    1.6737287468
C       -0.1267946441   -1.3398147382    0.4771252645
C        0.4835518438   -2.7464440216    0.5414490329
C        0.2285294515   -0.6564367268   -0.8647625381
C       -0.5098164752    0.6359425719   -1.0911508856
C       -0.0092751478    1.8796458273   -1.0332872869
C        1.4196230717    2.2664183377   -0.7413207483
H       -0.1222353031    0.5094174275    1.6411522359
H        0.0331432758   -0.9605858918    2.6205586767
H        1.4124015321   -0.3741737152    1.6774332624
H       -1.2205410616   -1.4403426563    0.5213341582
H        0.1339439006   -3.3729520573   -0.2869824111
H        0.2212453350   -3.2502242712    1.4785086670
H        1.5782595761   -2.6990553757    0.4854462107
H        1.3127759813   -0.5001651977   -0.9002148263
H       -0.0149614533   -1.3502778334   -1.6806652458
H       -1.5761782026    0.5320173060   -1.2980606601
H       -0.6956668433    2.7065626005   -1.2158038740
H        1.6820162858    3.2010955633   -1.2473221528
H        2.1350440368    1.4982042013   -1.0462504269
H        1.5657769845    2.4397105222    0.3333426459
21   
torsion grid (-15,)
C        0.2873621998   -0.4884343256    1.7014539534
C       -0.1262698360   -1.3386693869    0.4930056711
C        0.5046237012   -2.7359765601    0.5614952215
C        0.2407726125   -0.6427220557   -0.8389080219
C       -0.5123715386    0.6399063468   -1.0700730736
C       -0.0083356709    1.8828647922   -1.0453513264
C        1.4355506598    2.2541461398   -0.7926362851
H       -0.1645899549    0.5073408478    1.6618567312
H       -0.0166152548   -0.9639339714    2.6406555085
H        1.3771861537   -0.3627446952    1.7293042838
H       -1.2189430391   -1.4564857383    0.5176141752
H        0.1782916133   -3.3641525663   -0.2751258812
H        0.2348852295   -3.2478246939    1.4920592847
H        1.5992144302   -2.6714499786    0.5236235368
H        1.3226006824   -0.4669412409   -0.8563940620
H        0.0216158815   -1.3361078397   -1.6624394738
H       -1.5826284712    0.5291839708   -1.2516565237
H       -0.6952486500    2.7097855284   -1.2227997805
H        1.6305380211    3.2901007420   -1.0842664648
H        2.1314064346    1.6127725406   -1.3427103472
H        1.6883941135    2.1672877343    0.2717568781
21   
torsion grid (0,)
C        0.2424665553   -0.4981986997    1.7174229631
C       -0.1391294504   -1.3416875980    0.4937238749
C        0.4992924159   -2.7353651403    0.5653415069
C        0.2509102412   -0.6321657566   -0.8238306366
C       -0.5109521622    0.6434510209   -1.0649166399
C       -0.0043707409    1.8852139246   -1.0714259082
C        1.4471106358    2.2484566754   -0.8423084326
H       -0.2066040486    0.4986558528    1.6706992305
H       -0.0873191983   -0.9778174221    2.6457513750
H        1.3313622256   -0.3747228751    1.7759099918
H       -1.2313132845   -1.4667923527    0.4937236937
H        0.1936401761   -3.3598213748   -0.2818122525
H        0.2146041543   -3.2553375228    1.4869107015
H        1.5939726885   -2.6636312528    0.5495565756
H        1.3306455899   -0.4428879676   -0.8186277679
H        0.0585904235   -1.3216049272   -1.6576250384
H       -1.5829344539    0.5275199267   -1.2325911454
H       -0.6903391675    2.7115591610   -1.2538324467
H        1.5941821037    3.3305455540   -0.8968511361
H        2.1054078549    1.7897965401   -1.5892571048
H        1.7965000294    1.9176608137    0.1424489273
21   
torsion grid (15,)
C        0.0436690641   -0.3782722393    1.5397495272
C       -0.3023325653   -1.2383571194    0.3170055936
C        0.2952515778   -2.6458114363    0.4472647712
C        0.1665188252   -0.5671624911   -0.9944995767
C       -0.5549333419    0.7179819088   -1.3014015614
C       -0.0223333958    1.9483501892   -1.3371204019
C        1.4249684027    2.2987102924   -1.0724463294
H       -0.3732177715    0.6295208367    1.4498246674
H       -0.3442494626   -0.8273215143    2.4608666683
H        1.1315820549   -0.2837528422    1.6492611391
H       -1.3962648701   -1.3359324533    0.2680488765
H        0.0125743212   -3.2808106646   -0.4000426949
H       -0.0450134962   -3.1380949860    1.3651894273
H        1.3910174274   -2.6022262135    0.4809258916
H        1.2491402941   -0.4030772870   -0.9451199719
H       -0.0023495079   -1.2699453095   -1.8222959174
H       -1.6230094538    0.6191073773   -1.5022681526
H       -0.6859635963    2.7800852345   -1.5715111899
H        1.5413219588    3.3722829512   -0.8983192737
H        2.0634094284    2.0428957868   -1.9277120990
H        1.8234428997    1.7712571932   -0.2003036469
21   
torsion grid (30,)
C       -0.0076971839   -0.3283659428    1.4877871866
C       -0.3513651083   -1.2031431991    0.2749280296
C        0.2178251090   -2.6189150684    0.4383896667
C        0.1498526017   -0.5638041403   -1.0404565921
C       -0.5462706166    0.7267119915   -1.3823613710
C       -0.0070057409    1.9539907311   -1.4321625366
C        1.4296674148    2.3209496106   -1.1502834089
H       -0.4070283852    0.6842377879    1.3758101952
H       -0.4145154141   -0.7560606826    2.4109143363
H        1.0800746421   -0.2485701273    1.6100655700
H       -1.4460746511   -1.2814883583    0.2108595842
H       -0.0623286023   -3.2627160687   -0.4031055055
H       -0.1467493716   -3.0895617955    1.3583195067
H        1.3135070710   -2.5948055541    0.4899914803
H        1.2344757337   -0.4204241648   -0.9778687497
H       -0.0189727883   -1.2779096630   -1.8584147780
H       -1.6116207174    0.6344048199   -1.6008022546
H       -0.6657257071    2.7826848444   -1.6921377551
H        1.4967086927    3.3329534582   -0.7378619648
H        2.0269028257    2.3193272992   -2.0719578680
H        1.9073976776    1.6340694649   -0.4471401494
21   
torsion grid (45,)
C       -0.0184772009   -0.3161461843    1.4776784990
C       -0.3727900649   -1.1940711760    0.2702533634
C        0.1699268330   -2.6186161616    0.4473004105
C        0.1465816150   -0.5748246797   -1.0480498615
C       -0.5260820259    0.7245625205   -1.4040428463
C        0.0156286722    1.9518484471   -1.4261696327
C        1.4364308549    2.3291353168   -1.0969365757
H       -0.4031684331    0.7011791525    1.3582721735
H       -0.4328534712   -0.7319556692    2.4028725734
H        1.0701256540   -0.2506160025    1.6010101494
H       -1.4684187091   -1.2530127796    0.2017672354
H       -0.1173298941   -3.2635909664   -0.3908985760
H       -0.2079322664   -3.0756914843    1.3687045826
H        1.2655879237   -2.6138546007    0.5046678406
H        1.2331697984   -0.4521348436   -0.9792570408
H       -0.0308080952   -1.2926098441   -1.8606959825
H       -1.5845142461    0.6398325367   -1.6567083632
H       -0.6351155754    2.7826163849   -1.7012846419
H        1.4587105298    3.2092138055   -0.4437178378
H        1.9893835355    2.6024287527   -2.0054594445
H        1.9841762497    1.5247798465   -0.6013441499
21   
torsion grid (60,)
C        0.0389015250   -0.3311368942    1.5108983904
C       -0.3358072938   -1.2164295330    0.3151133632
C        0.1988468735   -2.6433486805    0.4977439912
C        0.1737137280   -0.6123912768   -1.0145959536
C       -0.4934051785    0.6890678378   -1.3738161887
C        0.0402535989    1.9202062421   -1.3607140924
C        1.4463260266    2.3056277234   -0.9858255560
H       -0.3432124575    0.6868233254    1.3891360689
H       -0.3648577448   -0.7382451130    2.4446145565
H        1.1293355134   -0.2693662938    1.6187221258
H       -1.4324905845   -1.2678793888    0.2596759947
H       -0.1032421504   -3.2933093617   -0.3313298462
H       -0.1710060187   -3.0898052433    1.4275636780
H        1.2951394117   -2.6460170161    0.5417440294
H        1.2616587299   -0.4971312896   -0.9551498635
H       -0.0167704690   -1.3361614724   -1.8186026358
H       -1.5442159234    0.6036063440   -1.6560400143
H       -0.6074202610    2.7505596136   -1.6449518637
H        1.4414898226    2.9917689005   -0.1293607497
H        1.9391726400    2.8347993978   -1.8109652054
H        2.0640713734    1.4456748528   -0.7187794331
21   
torsion grid (75,)
C        0.0600199542   -0.2956845027    1.4956402673
C       -0.3265457958   -1.2063626403    0.3228754680
C        0.2117444029   -2.6286001033    0.5296897174
C        0.1686549841   -0.6307315128   -1.0251262501
C       -0.4960178760    0.6670917788   -1.4012347815
C        0.0359522015    1.8989188326   -1.3769059785
C        1.4370035929    2.2799529098   -0.9753315770
H       -0.3318603058    0.7168116130    1.3603999040
H       -0.3267786940   -0.6876995830    2.4429009152
H        1.1514344913   -0.2241086551    1.5853281896
H       -1.4236667839   -1.2597998558    0.2803551374
H       -0.0969701048   -3.2957202377   -0.2831469601
H       -0.1491276558   -3.0563732416    1.4717370774
H        1.3083877036   -2.6290318715    0.5637594231
H        1.2576280167   -0.5177404300   -0.9779949804
H       -0.0337251936   -1.3699191072   -1.8118053074
H       -1.5413826478    0.5798743248   -1.7020519393
H       -0.6056705448    2.7282488801   -1.6765983320
H        1.4435556012    2.7421461461    0.0206977654
H        1.8587919914    3.0122602939   -1.6728500510
H        2.1111011580    1.4209171848   -0.9371466693
21   
torsion grid (90,)
C        0.0245116662   -0.2878985187    1.4945178041
C       -0.3376511832   -1.2046619978    0.3186715372
C        0.2124980711   -2.6208937330    0.5351787700
C        0.1686270774   -0.6268284019   -1.0243163157
C       -0.4954739002    0.6694156876   -1.4054328543
C        0.0457478895    1.8971480443   -1.3852065008
C        1.4567123837    2.2555165149   -0.9871669864
H       -0.3774905225    0.7198137060    1.3529025028
H       -0.3691143840   -0.6828211805    2.4377540044
H        1.1139071147   -0.2040405474    1.5969093461
H       -1.4335385099   -1.2695150811    0.2623574869
H       -0.0789204246   -3.2927102614   -0.2801607452
H       -0.1560685170   -3.0504999212    1.4734078363
H        1.3085462325   -2.6099397045    0.5833100825
H        1.2564864286   -0.5074139641   -0.9646148957
H       -0.0227912652   -1.3672476373   -1.8127377695
H       -1.5417850404    0.5856862192   -1.7037066351
H       -0.5889793765    2.7308843798   -1.6855705909
H        1.5216545887    2.4677788397    0.0881396882
H        1.8001183039    3.1487105754   -1.5182589502
H        2.1643515178    1.4478873110   -1.1948796196
21   
torsion grid (105,)
C       -0.0298762538   -0.2927952700    1.5017632215
C       -0.3533501255   -1.2051131545    0.3112133845
C        0.2103883520   -2.6156446490    0.5297304390
C        0.1741697201   -0.6098033259   -1.0155531958
C       -0.4998619711    0.6795908983   -1.4015024953
C        0.0492681380    1.9035264769   -1.4033335140
C        1.4748898039    2.2407669875   -1.0281477722
H       -0.4341133008    0.7133474215    1.3545121710
H       -0.4468984428   -0.6952448320    2.4316701127
H        1.0557449634   -0.2034416787    1.6349696038
H       -1.4467863135   -1.2838852615    0.2299020003
H       -0.0551306198   -3.2853898759   -0.2960858691
H       -0.1722229305   -3.0564802916    1.4570759728
H        1.3049344188   -2.5909687746    0.6010489306
H        1.2583592393   -0.4717716329   -0.9317075443
H        0.0119899736   -1.3474302968   -1.8134556034
H       -1.5502593214    0.5934926891   -1.6842127467
H       -0.5826792605    2.7398779274   -1.7004745873
H        1.6235029165    2.1990873032    0.0581657572
H        1.7408127093    3.2489095035   -1.3581014361
H        2.1928063367    1.5449505658   -1.4746251101
21   
torsion grid (120,)
C        0.1213928111   -0.6171621888    1.4968127087
C       -0.3192711337   -1.2833568299    0.1866621126
C        0.2744183440   -2.6927400746    0.0592342709
C        0.0598196092   -0.4209887688   -1.0397952781
C       -0.6647084538    0.8974137351   -1.0915592377
C       -0.1173167423    2.1136559807   -0.9509560587
C        1.3505281642    2.4002480235   -0.7173954033
H       -0.2967715861    0.3895410568    1.5929399917
H       -0.1987454532   -1.2039389545    2.3650262549
H        1.2148381310   -0.5330730875    1.5375805488
H       -1.4146291537   -1.3752194191    0.2031469581
H       -0.0733787812   -3.1928772538   -0.8517753805
H       -0.0034826303   -3.3191550198    0.9142662741
H        1.3701022375   -2.6518011138    0.0202160242
H        1.1450896019   -0.2664995308   -1.0430493255
H       -0.1774695677   -0.9904705449   -1.9491236151
H       -1.7436122806    0.8365684450   -1.2430615246
H       -0.7795294519    2.9769046362   -1.0052504474
H        1.7122552414    1.9325179491    0.2054118155
H        1.5321587554    3.4752463431   -0.6342373944
H        1.9750800272    2.0243021998   -1.5361012196
21   
torsion grid (135,)
C        0.1178058355   -0.6206704750    1.5182257290
C       -0.3141379384   -1.2870125293    0.2052353003
C        0.2758554691   -2.6985073613    0.0842972448
C        0.0773819697   -0.4267704686   -1.0183369014
C       -0.6485621323    0.8904879971   -1.0817615267
C       -0.1059727969    2.1115966740   -0.9667535538
C        1.3591863906    2.4161918058   -0.7466191548
H       -0.2948396418    0.3888633422    1.6082338253
H       -0.2139628676   -1.2036517505    2.3846235833
H        1.2113257533   -0.5429266926    1.5696038872
H       -1.4099266769   -1.3753114052    0.2127238862
H       -0.0666637125   -3.1987590944   -0.8286572171
H       -0.0105177956   -3.3228790882    0.9380277140
H        1.3719393938   -2.6612740465    0.0535100407
H        1.1625915484   -0.2726944572   -1.0146946913
H       -0.1511297589   -0.9971246126   -1.9294560814
H       -1.7283578290    0.8239892066   -1.2251102517
H       -0.7740332292    2.9699120806   -1.0306918521
H        1.8012799270    1.7701277300    0.0183353354
H        1.4960590329    3.4513251576   -0.4203123830
H        1.9437267876    2.2865945902   -1.6660423855
21   
torsion grid (150,)
C        0.0299591789   -0.5311766037    1.4363833579
C       -0.3960850297   -1.2175300409    0.1318543276
C        0.1628210983   -2.6445800279    0.0527394647
C        0.0353409702   -0.3950033303   -1.1040924699
C       -0.6624908724    0.9347554467   -1.2119695340
C       -0.1103700904    2.1533523755   -1.1137405552
C        1.3453442128    2.4666123171   -0.8651832308
H       -0.3609141946    0.4890893351    1.4969602295
H       -0.3284463850   -1.0868526022    2.3100858401
H        1.1240243773   -0.4761415251    1.5038764975
H       -1.4936136566   -1.2806470260    0.1230371252
H       -0.1753727481   -3.1572854334   -0.8549132611
H       -0.1527711653   -3.2428656381    0.9148024897
H        1.2598553177   -2.6332575498    0.0407207269
H        1.1235327397   -0.2668903467   -1.0866160679
H       -0.1907882902   -0.9810920614   -2.0056822437
H       -1.7398675828    0.8805028983   -1.3779061373
H       -0.7714665751    3.0145559969   -1.2110818448
H        1.8439251873    1.6886036944   -0.2810965107
H        1.4463997068    3.4065678017   -0.3124939215
H        1.8975585083    2.5886147669   -1.8060157839
21   
torsion grid (165,)
C        0.2384324842   -0.6321621132    1.5907315268
C       -0.2304154712   -1.3329155569    0.3088205190
C        0.3440662433   -2.7529892698    0.2161725857
C        0.1408057154   -0.5135857472   -0.9489653408
C       -0.5802636392    0.8054081954   -1.0378052990
C       -0.0575624817    2.0366682303   -0.9332474527
C        1.3858201238    2.3984291645   -0.6969800053
H       -0.1680534659    0.3810967217    1.6634583244
H       -0.0721547607   -1.1898206950    2.4813157695
H        1.3331668136   -0.5565588127    1.6109488887
H       -1.3264448266   -1.4105050510    0.3444202267
H       -0.0222832130   -3.2757832792   -0.6746455846
H        0.0702889309   -3.3499553107    1.0933040798
H        1.4395653843   -2.7273442575    0.1613331310
H        1.2271186248   -0.3730552660   -0.9740883698
H       -0.1126734141   -1.1091136290   -1.8367588305
H       -1.6583775933    0.7303618515   -1.1906008120
H       -0.7427537050    2.8811655675   -1.0147767766
H        1.9842227513    1.5470897638   -0.3650653374
H        1.4630988515    3.1760515417    0.0720313514
H        1.8467197253    2.8061520197   -1.6060161048
21   
torsion grid (180,)
C        0.3164990377   -0.6312905189    1.6134586527
C       -0.1763620911   -1.3590629797    0.3558906551
C        0.4028299042   -2.7781756466    0.2786287357
C        0.1650955662   -0.5634712686   -0.9259072650
C       -0.5622014250    0.7515409702   -1.0244976868
C       -0.0526134461    1.9867148786   -0.9007589863
C        1.3802386343    2.3646492770   -0.6357238697
H       -0.0980631134    0.3791602194    1.6781878222
H        0.0325032070   -1.1759301412    2.5208185615
H        1.4105648833   -0.5450176410    1.6057143654
H       -1.2709674431   -1.4405303553    0.4163042411
H        0.0205424479   -3.3197068923   -0.5941127602
H        0.1501239511   -3.3592100543    1.1726156874
H        1.4968260983   -2.7488218651    0.2004787704
H        1.2503879634   -0.4209531689   -0.9736295548
H       -0.1042653589   -1.1775143190   -1.7959383438
H       -1.6368403221    0.6699356877   -1.1966780701
H       -0.7434356790    2.8257709017   -0.9929928504
H        2.0380515330    1.4972277265   -0.5502800147
H        1.4604094994    2.9374398327    0.2968801932
H        1.7685385529    3.0081651503   -1.4350765966
