25   
torsion grid (-165,)
C       -0.4319644197   -0.0277761415    0.9169108046
N        0.3487021197   -0.4139987740    2.1357013823
C        1.2349708272    0.7247124817    2.5474804922
C        1.2384955041   -1.6004205611    1.7972325009
C       -0.5897105556   -0.7001301706    3.3168410391
C       -1.7235561294   -1.6867346340    3.0252881966
O       -1.2790018592   -2.9017264831    2.4723676426
P       -0.5343539747   -3.9814143033    3.5888946753
O        0.1428651109   -4.9490838762    2.4423014064
O        0.5643869853   -3.1807689271    4.2398059244
O       -1.6136592310   -4.6995958516    4.3264872874
H       -1.0187018557   -0.8849817224    0.5921475219
H       -1.0876087229    0.8106716570    1.1586093212
H        0.2665026069    0.2601322586    0.1294702459
H        1.7881738033    0.4267616952    3.4383680518
H        1.9303931181    0.9494775581    1.7376419304
H        0.6227879892    1.6008072053    2.7653131889
H        1.6458015631   -2.0086234243    2.7224835305
H        0.6301460622   -2.3715652378    1.3339616047
H        2.0121803072   -1.2387234599    1.1166729469
H        0.0414304293   -1.1060256734    4.1078270343
H       -1.0097119365    0.2690594651    3.6046029890
H       -2.2432660221   -1.8359750971    3.9828567260
H       -2.4541070102   -1.2542753621    2.3319809724
H       -0.4242937220   -5.7296558007    2.3287033196
25   
torsion grid (-150,)
C       -0.4980321183    1.5882364446    2.2112371818
N       -0.3951006516    0.0914463339    2.2155001068
C        0.4231632794   -0.3321556933    3.4180042122
C        0.3007476320   -0.3557693459    0.9511456025
C       -1.8230559252   -0.4580970636    2.3033230971
C       -2.0504075291   -1.9172168753    1.9181631642
O       -1.3970369904   -2.8258488539    2.7693025273
P       -0.1494817449   -3.7583636563    2.0706587369
O       -0.2988700278   -5.0863649639    3.0094530602
O       -0.5360188149   -4.0022138845    0.6495008599
O        1.1370223507   -3.0518593119    2.4505344263
H       -1.0036540531    1.9123699124    1.3005085053
H       -1.0655844494    1.9095221767    3.0858458150
H        0.5053918068    2.0134107912    2.2478385341
H        0.5797887401   -1.4138672518    3.3812716393
H        1.3872182561    0.1761436952    3.3546248002
H       -0.1101724991   -0.0172713992    4.3161061846
H        0.5747775643   -1.4071718855    1.0409624868
H       -0.3665967164   -0.1853462327    0.1054630122
H        1.2054243380    0.2441706460    0.8411828030
H       -2.1397300630   -0.2796350587    3.3332658555
H       -2.4268845587    0.1663663158    1.6378871424
H       -3.1376696548   -2.0562492983    2.0095341037
H       -1.7971168829   -2.1049411560    0.8696471883
H        0.4423962660   -5.0961560705    3.6363761351
25   
torsion grid (-135,)
C       -0.5333262006    1.6764325553    2.1352180725
N       -0.3883605639    0.1824295971    2.1252603710
C        0.5065261064   -0.2108252668    3.2830059978
C        0.2437973971   -0.2335099041    0.8184111867
C       -1.7922752157   -0.4108715185    2.2875965859
C       -2.0099563793   -1.8700983983    1.8885966502
O       -1.3492487305   -2.7983716703    2.7101824144
P        0.0264284173   -3.5952309931    2.0985986969
O       -0.3141080616   -5.1184329101    2.5786337424
O       -0.0344366873   -3.4403058086    0.6078252465
O        1.1913803028   -3.0903454195    2.9145152522
H       -1.1198851364    1.9896978544    1.2705894571
H       -1.0357771626    1.9794446468    3.0549052392
H        0.4580424418    2.1286157857    2.0921164993
H        0.6923239329   -1.2920359560    3.2762951785
H        1.4518169904    0.3215549762    3.1612132661
H        0.0169198958    0.1054745461    4.2054184711
H        0.3863408832   -1.3158165425    0.7821471706
H       -0.4142877470    0.0784934720    0.0052492209
H        1.2043677897    0.2772256316    0.7368713227
H       -2.0552513424   -0.2574782524    3.3364648565
H       -2.4504191385    0.2052051714    1.6675053811
H       -3.0936351993   -2.0175231244    2.0016993493
H       -1.7668856900   -2.0372090589    0.8345966531
H        0.2490454133   -5.3224697247    3.3430750188
25   
torsion grid (-120,)
C        0.4230860448    0.9176813082    0.9397263507
N       -0.0838539233   -0.2049544033    1.7978023615
C        0.6567002470   -0.1523095006    3.1198484605
C        0.1983935944   -1.5146603290    1.1005468459
C       -1.5877049386    0.0165592281    1.9881070037
C       -2.4112065582   -1.1490397134    2.5345116356
O       -2.0564051848   -1.4879512378    3.8504543960
P       -1.2593540258   -2.9651485741    4.1476803359
O       -2.3249911660   -3.6876830345    5.1545888779
O       -1.2162343970   -3.6805757042    2.8272720600
O       -0.0257323944   -2.5798778032    4.9175838364
H       -0.0482967240    0.8638477040   -0.0423411415
H        0.1817428941    1.8688437045    1.4163320141
H        1.5044057456    0.8229897596    0.8352296260
H        0.3668356948   -0.9792631456    3.7750625727
H        1.7235116702   -0.2153546289    2.8972460723
H        0.4308161915    0.8047800922    3.5923382293
H       -0.1361386961   -2.3568973231    1.7161729430
H       -0.3337452701   -1.5146675691    0.1470654746
H        1.2738298774   -1.5716952947    0.9245390231
H       -1.6734087151    0.8825753642    2.6483730530
H       -1.9784687319    0.2856690922    1.0020494211
H       -3.4482444867   -0.7835846102    2.5251527559
H       -2.3592257316   -2.0195343907    1.8739013275
H       -2.0148643614   -3.5634364305    6.0667273025
25   
torsion grid (-105,)
C        0.4253565444    0.9207210999    0.9170872427
N       -0.0869152261   -0.2148977966    1.7547935523
C        0.6623426291   -0.1925633871    3.0732698025
C        0.1834606553   -1.5143531805    1.0332568831
C       -1.5894348389    0.0125183209    1.9480932219
C       -2.3985590084   -1.1372173536    2.5462762835
O       -1.9900850439   -1.4115721220    3.8615616034
P       -1.2624607492   -2.9104948801    4.2230335066
O       -2.4781209695   -3.6874154981    4.9971251716
O       -1.0277268231   -3.5781127905    2.8955176772
O       -0.1709749094   -2.5485984539    5.1851335531
H       -0.0505976818    0.8888140655   -0.0636467248
H        0.1936044648    1.8646880723    1.4124063402
H        1.5053710327    0.8195043716    0.8056028408
H        0.3623098065   -1.0141645315    3.7232286287
H        1.7264836268   -0.2667490265    2.8426037362
H        0.4515442829    0.7577647412    3.5653500067
H       -0.1311406402   -2.3600135725    1.6586018767
H       -0.3721547174   -1.5030833578    0.0931966843
H        1.2544952956   -1.5631489761    0.8287901073
H       -1.6710358373    0.8971704258    2.5839491038
H       -1.9855364755    0.2524613601    0.9566318206
H       -3.4393794731   -0.7824245555    2.5491856393
H       -2.3483539502   -2.0299641815    1.9161983157
H       -2.3747344863   -3.5492590238    5.9533145198
25   
torsion grid (-90,)
C        0.0794563312    1.1018178195    0.4068638610
N       -0.0126376498    0.1478004842    1.5613297958
C        0.9315952772    0.6253520636    2.6495249358
C        0.4108253102   -1.2294477974    1.1088666165
C       -1.4733814391    0.1476680810    2.0188538974
C       -1.8753437071   -0.8288398344    3.1206114779
O       -1.3176965874   -0.4686466816    4.3595875722
P       -0.1616660521   -1.5002176819    5.0626728572
O       -1.1139370468   -2.4952452614    5.9575204052
O        0.3962991162   -2.3005243260    3.9111186923
O        0.6536614171   -0.6123441453    5.9434310329
H       -0.5941326367    0.7763679867   -0.3869150829
H       -0.1999387922    2.1003387506    0.7462195560
H        1.1049594629    1.1129053307    0.0368792302
H        1.1113399785   -0.1826310001    3.3519016639
H        1.8659344666    0.9169404105    2.1671165463
H        0.4817680485    1.4727433484    3.1643071715
H        0.4281162583   -1.8877850400    1.9845386684
H       -0.2934879233   -1.5736943374    0.3487957143
H        1.4104781212   -1.1465920947    0.6784174986
H       -1.6800992298    1.1697312373    2.3448095518
H       -2.0613100936   -0.0624882295    1.1201361634
H       -2.9701669797   -0.7474454509    3.1815639985
H       -1.6327527262   -1.8587477653    2.8447501351
H       -1.1562133625   -2.1447025453    6.8627477384
25   
torsion grid (-75,)
C        0.6271768392    0.6384799600    0.8142735733
N       -0.0349985542   -0.3021689110    1.7773434991
C        0.6546196467   -0.1756137089    3.1231551167
C        0.1165602919   -1.7198929508    1.2790336086
C       -1.5102723213    0.0974749313    1.8441318351
C       -2.4442542554   -0.7724052364    2.6793592157
O       -2.1713032470   -0.6474590674    4.0537080458
P       -1.6891110585   -2.0504543127    4.8871448871
O       -3.1229609215   -2.8502834520    5.0127242943
O       -0.8434889809   -2.8134714285    3.8948059167
O       -1.2214902330   -1.5683039550    6.2166964586
H        0.1469808828    0.5552368218   -0.1616253894
H        0.5328161183    1.6584133826    1.1898407741
H        1.6815361886    0.3744680095    0.7288191658
H        0.3810128638   -1.0309207964    3.7365419509
H        1.7303621393   -0.1693876775    2.9392629470
H        0.3390589245    0.7532788069    3.5960515193
H       -0.2788917807   -2.3949146093    2.0455726507
H       -0.4174815956   -1.8110135184    0.3310802086
H        1.1807291375   -1.9079529762    1.1255230715
H       -1.5223490877    1.1192812433    2.2306643415
H       -1.8586264142    0.1083042232    0.8068047915
H       -3.4519896868   -0.3841970435    2.4724269421
H       -2.4188812262   -1.8131901941    2.3440855022
H       -3.5296657184   -2.6171160878    5.8638689169
25   
torsion grid (-60,)
C        0.6014624367    0.4898703966    0.8596891840
N       -0.0530845330   -0.3998112953    1.8746844074
C        0.6465755033   -0.2098679677    3.2068611414
C        0.0908527216   -1.8410480764    1.4457485525
C       -1.5261239170    0.0068920757    1.9399484689
C       -2.4573814387   -0.8459037403    2.7946140484
O       -2.1773900533   -0.7029862471    4.1666529309
P       -1.7902874938   -2.1290275775    5.0117656096
O       -3.1725789225   -3.0015595297    4.7741405456
O       -0.7244719264   -2.7876727079    4.1661651616
O       -1.6417718476   -1.7258776104    6.4359079105
H        0.1240566970    0.3447535309   -0.1103967292
H        0.4960034409    1.5290613776    1.1746881779
H        1.6586624458    0.2322529179    0.7914315140
H        0.3349611263   -1.0102006882    3.8769994505
H        1.7208617445   -0.2651440416    3.0216140239
H        0.3768825995    0.7669487627    3.6071283577
H       -0.2756985457   -2.4779038519    2.2582431687
H       -0.4711264225   -1.9835060621    0.5205909263
H        1.1509117455   -2.0322739581    1.2695426022
H       -1.5335053399    1.0361407544    2.3061693972
H       -1.8802546865   -0.0015787606    0.9045648480
H       -3.4661390441   -0.4612173828    2.5860835041
H       -2.4414280000   -1.8907441060    2.4706368383
H       -3.7568883781   -2.8602395169    5.5376114120
25   
torsion grid (-45,)
C        0.6343599379    0.3821318280    0.8622345816
N       -0.0184843493   -0.4667552598    1.9126048727
C        0.7165663627   -0.2650970828    3.2238447584
C        0.0791438845   -1.9207768068    1.5140413227
C       -1.4780151565   -0.0181263726    2.0060227157
C       -2.4186774645   -0.8673950869    2.8541069829
O       -2.0870490749   -0.7997431132    4.2194987552
P       -1.7786412795   -2.2750139318    5.0154872992
O       -3.0393978753   -3.1880241012    4.4483371702
O       -0.5464362794   -2.8097435169    4.3224325326
O       -1.9192958907   -2.0053975557    6.4704130438
H        0.1446495812    0.2106677755   -0.0973964488
H        0.5434611694    1.4322047274    1.1441020340
H        1.6879736416    0.1109406737    0.7912387080
H        0.3745401756   -1.0199536642    3.9328332257
H        1.7819530226   -0.3910772572    3.0219440598
H        0.5139168932    0.7440002336    3.5825327126
H       -0.2532172106   -2.5332487058    2.3597982706
H       -0.5308559797   -2.0765014749    0.6221031088
H        1.1257405169   -2.1347669366    1.2902121118
H       -1.4495881696    1.0030239133    2.3930140325
H       -1.8482168223    0.0053354333    0.9764614803
H       -3.4167609858   -0.4335508195    2.6951918698
H       -2.4622905346   -1.8951128742    2.4817241187
H       -3.7425449006   -3.1847251435    5.1191707612
25   
torsion grid (-30,)
C        0.5105056461    0.7034198009    1.0681863109
N       -0.0432250513   -0.3529067045    1.9778759276
C        0.7222170784   -0.3136513507    3.2866905814
C        0.1430961727   -1.7095601787    1.3391741040
C       -1.5255054376   -0.0327771520    2.1859526518
C       -2.3905351167   -1.1194999747    2.8175742702
O       -1.9913619004   -1.4017220833    4.1336488874
P       -1.5376694879   -2.9922611001    4.5605087651
O       -2.4810088501   -3.8664811221    3.5081687508
O       -0.1281829117   -3.1131029484    4.0321053673
O       -1.9762240800   -3.2080600058    5.9636748907
H        0.0178899890    0.6383263324    0.0969717216
H        0.3327988992    1.6848402340    1.5105605373
H        1.5823584736    0.5430820200    0.9491551282
H        0.4302476242   -1.1742049675    3.8913221689
H        1.7848205668   -0.3741066078    3.0437756336
H        0.5010291194    0.6310752139    3.7841751861
H       -0.0741717719   -2.4804677801    2.0859828257
H       -0.5114667283   -1.7764381188    0.4683739647
H        1.1859603195   -1.7889957510    1.0274917500
H       -1.5479447977    0.8702487683    2.8000029833
H       -1.9243344487    0.2053660945    1.1950608931
H       -3.4095988837   -0.7039364236    2.8199997976
H       -2.4191860204   -2.0142422134    2.1891011387
H       -3.2416848286   -4.2134402732    4.0036941579
25   
torsion grid (-15,)
C        0.3101856465    1.0183337461    1.4070378267
N       -0.1292849922   -0.2550290378    2.0673049801
C        0.6505394305   -0.4238233513    3.3578273848
C        0.1757118849   -1.4183420247    1.1526083636
C       -1.6316736299   -0.1246735340    2.3380458231
C       -2.3895921678   -1.4139150076    2.6481064586
O       -1.8869458833   -2.0379644212    3.7968486861
P       -1.2551393888   -3.6265228152    3.7822369644
O       -1.8337510917   -4.1587177720    2.3112175509
O        0.2226707810   -3.4042687204    3.5839574648
O       -1.8999727473   -4.3868298027    4.8845335181
H       -0.1740554654    1.1056414914    0.4333168722
H        0.0307478318    1.8630514969    2.0385176806
H        1.3928926532    0.9972897129    1.2801709725
H        0.4256165853   -1.4026767672    3.7865326423
H        1.7112750967   -0.3689721953    3.1059709178
H        0.3789695487    0.3934881501    4.0271082589
H        0.0770508202   -2.3493438619    1.7152270688
H       -0.5027388261   -1.3800469828    0.2991360094
H        1.2073462654   -1.3116758480    0.8134939093
H       -1.7171282565    0.5763959341    3.1709822886
H       -2.0645354504    0.3357124877    1.4446144022
H       -3.4313718001   -1.0996068344    2.8143066115
H       -2.3901668296   -2.0837923795    1.7834622061
H       -2.5461383874   -4.7961557162    2.4865425445
25   
torsion grid (0,)
C       -0.7380686462   -1.1961679597    1.1518545068
N        0.2134259155   -0.7674756207    2.2419113850
C       -0.2519778419    0.5642813765    2.8060184230
C        1.5805539181   -0.5816034215    1.6517365343
C        0.3411620483   -1.8330816565    3.3369609107
C       -0.9643896571   -2.4590873175    3.8252968275
O       -1.8256903051   -1.4644400620    4.2966038500
P       -3.4106924897   -1.2007157551    3.7160560577
O       -3.4886054356   -2.4089425391    2.5589316077
O       -4.3828009453   -1.5083102606    4.7988923731
O       -3.2620025904    0.0946790927    2.9665039561
H       -0.4760348028   -2.2060912470    0.8332429296
H       -1.7608785880   -1.1525882249    1.5201133422
H       -0.6254737962   -0.5006159771    0.3189372485
H        0.3979851595    0.8220507589    3.6430572628
H       -0.1504398859    1.3038854986    2.0093766067
H       -1.2995039851    0.4892947236    3.1107252542
H        2.2800847878   -0.3235574207    2.4480774761
H        1.8942450270   -1.5071388141    1.1667546367
H        1.5447950848    0.2251966615    0.9192591392
H        0.9907348958   -2.6150084786    2.9319384896
H        0.8578703300   -1.3382412267    4.1618536221
H       -1.4255262968   -3.0604389245    3.0361152238
H       -0.6778557039   -3.1442188499    4.6378566405
H       -4.1551765836   -3.0517395024    2.8539059788
25   
torsion grid (15,)
C       -0.6175205335   -1.1256393755    1.0335013007
N        0.2188702574   -0.7211643298    2.2250093761
C       -0.2651675014    0.6236307472    2.7344456239
C        1.6500926888   -0.5825331232    1.7972221309
C        0.1818762865   -1.7816365946    3.3302341391
C       -1.1837341831   -2.3773201355    3.6663863475
O       -2.0765773187   -1.3911960198    4.1043541140
P       -3.5585810776   -1.0719571489    3.3132209069
O       -3.6863747592   -2.4390552518    2.3665996151
O       -4.6338468552   -1.0647917688    4.3392702735
O       -3.2060153035    0.0481910120    2.3680293889
H       -0.3750875096   -2.1559101506    0.7689623463
H       -1.6740645202   -1.0020547415    1.2813118580
H       -0.3625717553   -0.4591791898    0.2079874410
H        0.3082407640    0.8739046311    3.6278693136
H       -0.0765937649    1.3560900695    1.9473273260
H       -1.3374398192    0.5662992125    2.9332863484
H        2.2630060800   -0.3523458132    2.6700043183
H        1.9836516271   -1.5174666986    1.3445830177
H        1.7268861230    0.2270285618    1.0709380656
H        0.8496727007   -2.5853286079    3.0051826744
H        0.6140210493   -1.2998687195    4.2098564975
H       -1.5807087689   -2.9445008047    2.8195653635
H       -0.9897396383   -3.0979632875    4.4755884679
H       -4.3848693662   -2.9978060088    2.7467187055
25   
torsion grid (30,)
C       -0.4867670487   -1.1512166693    1.0528025835
N        0.3751401654   -0.7353104348    2.2220343485
C       -0.2194149400    0.5077683465    2.8562654943
C        1.7539055917   -0.4083964761    1.7298863229
C        0.5203926037   -1.8692824634    3.2400302530
C       -0.7545516965   -2.5948175150    3.6599424835
O       -1.6390142020   -1.7403886506    4.3369888284
P       -3.2239054480   -1.5154080943    3.7421010284
O       -3.4872093382   -2.9897541996    3.0221295950
O       -4.1107428209   -1.3402340889    4.9213747433
O       -3.0406070674   -0.5394308573    2.6043236414
H       -0.1293395735   -2.1137543558    0.6825896720
H       -1.5297968822   -1.1917643605    1.3839931813
H       -0.3812096785   -0.3917381883    0.2762380721
H        0.3505310771    0.7383837306    3.7567809039
H       -0.1265766844    1.3185441412    2.1311981242
H       -1.2728907442    0.3223511841    3.0739791955
H        2.3857961802   -0.1520956981    2.5816461303
H        2.1658114903   -1.2733416568    1.2079855857
H        1.6954605825    0.4400905330    1.0477049287
H        1.2070235387   -2.5925165391    2.7893861623
H        1.0034933739   -1.4217553997    4.1114003256
H       -1.2243593443   -3.0899964476    2.8052615809
H       -0.4161587420   -3.3923256768    4.3385595369
H       -4.0491441440   -3.5172473358    3.6141662221
25   
torsion grid (45,)
C       -0.8210604949   -1.0837617138    1.0280777456
N        0.1725346305   -0.7185341776    2.1059925900
C       -0.2359410937    0.6047479380    2.7244380799
C        1.5338140555   -0.5618781734    1.4957010559
C        0.2783693595   -1.8262994309    3.1557022001
C       -1.0205063472   -2.3290872973    3.7765846420
O       -1.6307865414   -1.3409132867    4.5702583360
P       -3.2378079778   -0.9225305703    4.1860448866
O       -3.8949393335   -2.4287370662    3.9757195181
O       -3.7972680540   -0.2528644589    5.3892993488
O       -3.1356770840   -0.3273811446    2.8004166255
H       -0.5752636105   -2.0796490556    0.6543153811
H       -1.8283975605   -1.0351298259    1.4567783847
H       -0.7245263683   -0.3512832685    0.2247024081
H        0.3897418800    0.7861260090    3.5982885905
H       -0.0736678361    1.3789535311    1.9721355929
H       -1.2923063510    0.5518619193    2.9904519735
H        2.2513662867   -0.3180692154    2.2805840521
H        1.8202053400   -1.4937096616    1.0060287385
H        1.5033415559    0.2446366675    0.7626991624
H        0.7826887957   -2.6602500526    2.6579213613
H        0.9346212110   -1.4332983820    3.9355733801
H       -1.6922196451   -2.7285796736    3.0110898603
H       -0.7246644425   -3.1790220695    4.4088284896
H       -4.3503850116   -2.6787272137    4.7970085455
25   
torsion grid (60,)
C       -0.7226767925   -1.0934457755    1.0104964269
N        0.2334766350   -0.7509991181    2.1286396444
C       -0.2073274194    0.5492319880    2.7732642252
C        1.6112337265   -0.5627896368    1.5660867852
C        0.3185891276   -1.8917713690    3.1439560006
C       -0.9848999840   -2.3883686080    3.7598212683
O       -1.5484741359   -1.4300123071    4.6231273576
P       -3.1289844818   -0.9166374365    4.2537639804
O       -3.9392752768   -2.3529671546    4.3486074087
O       -3.5225585069    0.0016172238    5.3558415317
O       -3.0732014250   -0.5594753307    2.7860232218
H       -0.4369070007   -2.0625357675    0.5966986101
H       -1.7390742306   -1.0982524320    1.4191382891
H       -0.6308679364   -0.3210141515    0.2448158439
H        0.3568695525    0.6914222961    3.6944473896
H        0.0053928284    1.3524595083    2.0654204582
H       -1.2769836393    0.4904752950    2.9711186500
H        2.2972933058   -0.3140804998    2.3770897536
H        1.9314957780   -1.4837887172    1.0769615155
H        1.5900297663    0.2506934283    0.8404838165
H        0.8051312812   -2.7187938696    2.6178155635
H        0.9845600622   -1.5365378901    3.9337709232
H       -1.6846492799   -2.7178355799    2.9860762361
H       -0.7039126878   -3.2802152194    4.3383861316
H       -4.3126220719   -2.4336218569    5.2421249569
25   
torsion grid (75,)
C       -0.5658336481   -1.1237921992    0.9532619977
N        0.3374424378   -0.7645655271    2.1091749078
C       -0.1620858980    0.5193527388    2.7454534374
C        1.7296280518   -0.5322092139    1.6007517144
C        0.4188773096   -1.9141860375    3.1154674874
C       -0.8872584269   -2.4301103756    3.7108435656
O       -1.4650800195   -1.4855063436    4.5784886370
P       -3.0071858386   -0.8908080065    4.1738226089
O       -3.9551634486   -2.1760975601    4.5744623236
O       -3.2334515903    0.2559391243    5.0971559277
O       -2.9992517680   -0.8015330586    2.6658349886
H       -0.2228808145   -2.0694614181    0.5287468310
H       -1.5928320730   -1.1848410985    1.3290251930
H       -0.4852029744   -0.3308467942    0.2075107943
H        0.3215174104    0.6457199112    3.7130353643
H        0.0981086663    1.3391862343    2.0736983708
H       -1.2414030919    0.4537318272    2.8613182709
H        2.3727784472   -0.2531161356    2.4366251147
H        2.1016867683   -1.4449018247    1.1333564365
H        1.7094127095    0.2743451885    0.8674366132
H        0.9227124830   -2.7302780070    2.5885500628
H        1.0688740714   -1.5584948323    3.9183457015
H       -1.5787741534   -2.7507485392    2.9264438199
H       -0.6026190307   -3.3239433288    4.2845051967
H       -4.2670961376   -2.0538081672    5.4865657022
25   
torsion grid (90,)
C        0.0124351728   -0.7098118267    0.8360925932
N        0.7736642914   -0.4684492538    2.1179392998
C        0.4577231820    0.9256586581    2.6282923974
C        2.2470019739   -0.5465152105    1.8447986234
C        0.4582794544   -1.5511297482    3.1530084091
C       -1.0032517923   -1.7685330275    3.5346650457
O       -1.5115766657   -0.6856776353    4.2727707427
P       -2.7362327429    0.2695743761    3.5780884265
O       -4.0879916250   -0.5109008984    4.0892453073
O       -2.6059264496    1.5983827824    4.2460055379
O       -2.6048149179    0.0485466691    2.0908902045
H        0.2245730776   -1.7254463213    0.4958648523
H       -1.0536718975   -0.5552765211    1.0361846078
H        0.3666389614    0.0109927085    0.0968763454
H        0.7716131716    1.0036485429    3.6679116669
H        1.0049589544    1.6342215813    2.0044294643
H       -0.6097718510    1.1061503051    2.5484901655
H        2.7920686598   -0.3427002051    2.7676365067
H        2.4953696746   -1.5433146174    1.4781490889
H        2.5080046005    0.1974707323    1.0917823662
H        0.8633339311   -2.4792215799    2.7381586350
H        1.0313252802   -1.2830566240    4.0437122319
H       -1.6137704150   -1.9885801924    2.6546023613
H       -0.9964144772   -2.6656280348    4.1703937881
H       -4.3985604388   -0.0820376787    4.9039462536
25   
torsion grid (105,)
C       -1.0171430416    0.4691403948    2.1843619668
N        0.1816918346   -0.4534490113    2.2934019358
C        1.3943378864    0.3172060060    1.8582158630
C        0.0014323134   -1.6392700908    1.3749061548
C        0.4286908513   -0.9002758720    3.7377064629
C       -0.5418839743   -1.9217582300    4.3284063417
O       -1.8385821229   -1.3908441431    4.4223103040
P       -3.0943811042   -2.0623100556    3.4847563693
O       -3.9269234901   -2.9109097276    4.6105550354
O       -3.8795906137   -0.8651068800    3.0396726565
O       -2.4266867863   -3.0285117307    2.5446794463
H       -1.9432508276   -0.0368617234    2.4559900743
H       -0.8539109703    1.3153136495    2.8529799331
H       -1.0679333421    0.8136725109    1.1500385809
H        2.2625371951   -0.3427804564    1.8643787985
H        1.2287905603    0.6983204544    0.8500235044
H        1.5553121781    1.1499188230    2.5443652978
H        0.8751651957   -2.2859735057    1.4793741908
H       -0.9152343395   -2.1811551063    1.6418394334
H       -0.0579125930   -1.2607259788    0.3529045806
H        1.4407807380   -1.3160922681    3.7531297345
H        0.4147733199    0.0158387837    4.3327857728
H       -0.5313169919   -2.8564312623    3.7602603149
H       -0.1554641736   -2.1331141593    5.3359783841
H       -4.6474032083   -2.3534069461    4.9484571944
25   
torsion grid (120,)
C       -0.2130616803   -0.9606020540    0.7817726560
N        0.3684343414   -0.5520974207    2.1144922101
C       -0.3766011426    0.6519018181    2.6570077819
C        1.8024803752   -0.1557844739    1.9143611897
C        0.3569410565   -1.7149603251    3.1117600072
C       -0.9318543826   -2.5262457097    3.2378764723
O       -1.9968850119   -1.7678024859    3.7508563682
P       -3.3029194863   -1.3647138113    2.7321883595
O       -4.5407840153   -2.0720440696    3.5315839628
O       -3.4229533555    0.1304837091    2.8462273282
O       -3.0433240359   -2.0734302239    1.4331466296
H        0.3546129749   -1.8161337195    0.4101386147
H       -1.2692835102   -1.2304569950    0.8906516694
H       -0.1014538008   -0.1170129256    0.0986218637
H        0.0691310716    0.9170118327    3.6168648178
H       -0.2388363357    1.4672309895    1.9443566158
H       -1.4438541648    0.4425871226    2.7769442934
H        2.2411873655    0.0981936430    2.8803505993
H        2.3482239845   -0.9863836991    1.4651125941
H        1.8413906862    0.7110076687    1.2538375754
H        1.1610802386   -2.3874341957    2.7977804816
H        0.6231505025   -1.2748989328    4.0754775237
H       -1.2025767363   -2.9966742626    2.2880011364
H       -0.6861470306   -3.3274701162    3.9497297810
H       -4.9943587421   -1.3908350384    4.0548778862
25   
torsion grid (135,)
C       -0.8320590806    0.7739410935    2.2915880072
N        0.1875478670   -0.3462304410    2.3310221163
C        1.5246601533    0.2277525496    1.9624577537
C       -0.1755197227   -1.4117894593    1.3244237957
C        0.3161053931   -0.9250029829    3.7444577375
C       -0.7318429455   -1.9361592244    4.2083090067
O       -2.0195593779   -1.3991275286    4.3718663657
P       -3.2159600002   -1.7833869760    3.2219522292
O       -4.4559486260   -2.1160430154    4.2310882762
O       -3.5238065221   -0.4933968595    2.5016278717
O       -2.7223044427   -3.0040741058    2.5033909830
H       -1.8384619642    0.3858396686    2.4917687618
H       -0.5364210376    1.5202552920    3.0306447015
H       -0.8020785896    1.2083628323    1.2904780987
H        2.2635464531   -0.5734147663    1.9182267391
H        1.4459704319    0.7114540645    0.9883073720
H        1.8167769245    0.9618251076    2.7147249872
H        0.5846943278   -2.1941403727    1.3648650978
H       -1.1558518232   -1.8390456224    1.5465079033
H       -0.1802862877   -0.9479070835    0.3370023986
H        1.2921761319   -1.4183787999    3.7775764121
H        0.3375116524   -0.0618335624    4.4132499844
H       -0.7541855432   -2.8162362679    3.5580133822
H       -0.3665019591   -2.2652525197    5.1917297293
H       -5.0692599176   -1.3634438732    4.2072632155
25   
torsion grid (150,)
C       -0.7924209319    0.9131352125    1.6090624401
N        0.3149856926   -0.0306793610    1.9637207479
C        1.4123412941    0.7063643212    2.6922002636
C        0.9090973280   -0.5747543886    0.6786166788
C       -0.2413327808   -1.1094897206    2.9228264850
C       -0.5593688102   -2.4800363054    2.3192555881
O        0.5714201135   -3.1447891401    1.8059957441
P        1.9026211017   -3.2600148824    2.8706483525
O        2.5417673831   -4.6607212840    2.3343237944
O        2.7983192814   -2.1110533416    2.4870735719
O        1.3329876019   -3.4173660575    4.2514394186
H       -1.5964538291    0.3492895521    1.1334426951
H       -1.1624749972    1.3935330646    2.5157298327
H       -0.4154843132    1.6689615841    0.9187810786
H        2.2125001285   -0.0152879891    2.8793708468
H        1.7600666924    1.5265422313    2.0609329877
H        1.0074576089    1.0987921172    3.6265115883
H        1.7589484063   -1.2075351377    0.9356659678
H        0.1498805730   -1.1439134213    0.1465029320
H        1.2172479527    0.2888571886    0.0854888015
H        0.4956308732   -1.2514847914    3.7105370436
H       -1.1431782370   -0.6828250999    3.3675554493
H       -1.0148456409   -3.0459122214    3.1428408790
H       -1.2952445549   -2.4060042472    1.5089256362
H        2.1572606331   -5.3914723811    2.8462293994
25   
torsion grid (165,)
C        0.2019069663    0.8631798669    1.0494965741
N        0.7073812705   -0.2596815943    1.9015892725
C        1.8724526118    0.2044912842    2.7386598067
C        1.2079130426   -1.3642683197    0.9914343704
C       -0.4137784911   -0.6924936370    2.8700567300
C       -1.2849019460   -1.8707441707    2.4305915063
O       -0.6044699133   -3.1025289873    2.3523833981
P        0.3119090532   -3.5130898386    3.7346725766
O        0.5409580472   -5.0918502747    3.3944399259
O        1.6298065260   -2.7954137389    3.5671513362
O       -0.5783391953   -3.3029847748    4.9205916039
H       -0.6794069479    0.5223538537    0.5042354377
H       -0.0599211907    1.7104307515    1.6846246139
H        0.9791475958    1.1577505185    0.3431313062
H        2.2236146596   -0.6638365697    3.3011687726
H        2.6489215900    0.5909628725    2.0755674036
H        1.5275959205    0.9931476963    3.4096813762
H        1.6075781657   -2.1607485277    1.6194954283
H        0.3822817940   -1.7307747897    0.3857079100
H        1.9784172593   -0.9229915212    0.3556270204
H        0.0657314292   -0.9399678984    3.8136347368
H       -1.0392932822    0.1915866710    3.0158240361
H       -2.0888410425   -1.9171388103    3.1783082282
H       -1.7470618450   -1.6853623680    1.4527194952
H       -0.1888057815   -5.6072140600    3.7765444183
25   
torsion grid (180,)
C        0.0352291638    0.6663205830    1.0848147875
N        0.6996773734   -0.2860557449    2.0300934407
C        1.8905681488    0.3701553638    2.6803042562
C        1.2059539460   -1.4743605968    1.2369690414
C       -0.2940115718   -0.6490820376    3.1530365853
C       -1.1446029844   -1.9012680246    2.9366012704
O       -0.4381259304   -3.1190072268    2.9164116007
P        0.6527506277   -3.4061104598    4.2003918396
O        1.1626896293   -4.8756971650    3.6982871530
O        1.7973301749   -2.4406609544    3.9865774919
O       -0.1432086181   -3.4641944562    5.4632145998
H       -0.8586537888    0.1923725111    0.6769676521
H       -0.2393017691    1.5759595464    1.6204847464
H        0.7237167480    0.9090108534    0.2743016752
H        2.3519797286   -0.3807589384    3.3247500303
H        2.5773018799    0.7046329781    1.9003141880
H        1.5432645959    1.2247284125    3.2636336380
H        1.7195211889   -2.1413123131    1.9285458263
H        0.3636353905   -1.9824961682    0.7735142172
H        1.8809901392   -1.0805166718    0.4742146602
H        0.2984554273   -0.7699386521    4.0555559770
H       -0.9490942897    0.2194631625    3.2598243255
H       -1.8733419905   -1.8888891335    3.7607960319
H       -1.7125289339   -1.8376690795    1.9993985086
H        0.6025343220   -5.5624329876    4.0969131830
