8    
torsion grid (-165,)
C       -1.4490481633    0.4358228101    1.2058920392
C       -1.1220469688    0.1691501302   -0.2408017935
O       -1.9576846146   -0.3508845760    1.9785444628
O       -1.0277989094    1.6733322564    1.5984081771
H       -1.3027728029    1.0531345649   -0.8566791658
H       -0.0567030421   -0.0737687267   -0.3109519958
H       -1.7061318347   -0.6777364843   -0.6003238698
H       -1.0517519465    1.6742856961    2.5743611662
8    
torsion grid (-150,)
C       -1.4730054391    0.5291427721    1.1098700191
C       -1.1074886370    0.1948941464   -0.3135969823
O       -1.9675935055   -0.2361829443    1.9107332290
O       -1.0581715646    1.7874588100    1.4584051753
H       -1.2581208298    1.0497040043   -0.9771702819
H       -0.0413530188   -0.0542546820   -0.3301046336
H       -1.6826091509   -0.6655862422   -0.6553099700
H       -0.8737924816    1.7692116474    2.4157663751
8    
torsion grid (-135,)
C       -1.5151588490    0.5230248696    1.1107819766
C       -1.1073738796    0.1970037484   -0.3033944245
O       -1.9998114863   -0.2584593681    1.8995151960
O       -1.1341151779    1.7956008735    1.4747466332
H       -1.2604072934    1.0475587093   -0.9719505467
H       -0.0343115487   -0.0216641975   -0.2881214864
H       -1.6481340917   -0.6792966681   -0.6612766388
H       -0.7442081113    1.7440724966    2.3652596277
8    
torsion grid (-120,)
C       -1.5471456429    0.5130863025    1.1165130399
C       -1.1013419262    0.1940030808   -0.2879590608
O       -2.0808234319   -0.2631253564    1.8743789821
O       -1.1652444560    1.7873848998    1.5092078544
H       -1.2999547966    1.0291235299   -0.9647996375
H       -0.0162153497    0.0464971240   -0.2646832118
H       -1.5855196745   -0.7154070595   -0.6443215417
H       -0.5928786375    1.7128614659    2.2914342367
8    
torsion grid (-105,)
C       -1.5997926634    0.5430293663    1.1143381745
C       -1.1011830830    0.2116420760   -0.2699631197
O       -2.2413049091   -0.1952687033    1.8211914706
O       -1.2024836511    1.8111053583    1.5371372191
H       -1.3306044867    1.0260426020   -0.9630044514
H       -0.0101416072    0.1198123617   -0.2343900548
H       -1.5387072032   -0.7236963400   -0.6194810638
H       -0.4873628554    1.7291603833    2.1892079630
8    
torsion grid (-90,)
C       -1.6564940492    0.5729872577    1.1133718122
C       -1.1035263432    0.2308746618   -0.2490671711
O       -2.4234397622   -0.1089392041    1.7454274284
O       -1.2459207233    1.8263177373    1.5742379656
H       -1.3860715878    1.0135424097   -0.9598091683
H       -0.0089061477    0.2118438883   -0.2153828032
H       -1.4825962945   -0.7355219319   -0.5818810121
H       -0.4189483596    1.7483693626    2.0772241008
8    
torsion grid (-75,)
C       -1.6722473055    0.5734880552    1.1381087778
C       -1.0940078211    0.2381301947   -0.2184455645
O       -2.5279703168   -0.0631043083    1.6992213253
O       -1.2450113164    1.7987360156    1.6453833280
H       -1.4397285430    0.9913980527   -0.9336228711
H        0.0000465835    0.2838317643   -0.2082719474
H       -1.4231094363   -0.7515281402   -0.5355609402
H       -0.3299229300    1.7366219725    1.9653017290
8    
torsion grid (-60,)
C       -1.6945524371    0.5529506029    1.1485187995
C       -1.0847715779    0.2427330945   -0.2030500214
O       -2.6056502770   -0.0609653846    1.6452817895
O       -1.2573723086    1.7396902584    1.7160626388
H       -1.4527915946    0.9882488820   -0.9152877962
H        0.0077964631    0.3166216481   -0.1910042970
H       -1.3847509996   -0.7529630995   -0.5297282802
H       -0.2948859270    1.7190390330    1.8482004638
8    
torsion grid (-45,)
C       -1.6972996924    0.5607857119    1.1772527992
C       -1.0814480963    0.2557866951   -0.1747568051
O       -2.6250676515   -0.0429598548    1.6564791740
O       -1.2425469381    1.7192088936    1.7734085677
H       -1.4356697696    1.0092950217   -0.8855360669
H        0.0126708573    0.3082393276   -0.1583036537
H       -1.3942420945   -0.7332294675   -0.5089776648
H       -0.2748334498    1.7752451936    1.7032254505
8    
torsion grid (-30,)
C       -1.7025173109    0.5527381224    1.1919462036
C       -1.0763739324    0.2623464446   -0.1600317560
O       -2.6396335771   -0.0506135512    1.6546961061
O       -1.2221270691    1.6709443019    1.8300763137
H       -1.4048049638    1.0317362683   -0.8664573922
H        0.0185811264    0.2856305011   -0.1280003313
H       -1.4066637940   -0.7140889478   -0.5133274697
H       -0.2949080889    1.8240041110    1.5826517669
8    
torsion grid (-15,)
C       -1.6717810263    0.5475333417    1.2116887099
C       -1.0587946020    0.2702456051   -0.1497226748
O       -2.5732107720   -0.0872278992    1.7030817948
O       -1.1809760742    1.6521900551    1.8589310505
H       -1.3109801721    1.0851941047   -0.8365167256
H        0.0335759554    0.2026077086   -0.0946583993
H       -1.4558587534   -0.6654187999   -0.5418202017
H       -0.3536280529    1.9435080577    1.4404106683
8    
torsion grid (0,)
C       -1.6379671687    0.5490321833    1.2063371461
C       -1.0337472211    0.2808887876   -0.1610775689
O       -2.5043836714   -0.1159165379    1.7205071664
O       -1.1293738983    1.6367740911    1.8659863533
H       -1.1862693386    1.1390797968   -0.8248133101
H        0.0445269973    0.1055872422   -0.0776519984
H       -1.5060772897   -0.5980112966   -0.5982747104
H       -0.4446071836    2.0645422525    1.3249097673
8    
torsion grid (15,)
C       -1.6439895493    0.5239630691    1.2287484518
C       -1.0499352494    0.2625465741   -0.1441466022
O       -2.4751034338   -0.1696221086    1.7627459750
O       -1.1138066160    1.5956665681    1.8998953675
H       -1.1012398161    1.1517935439   -0.7824926484
H        0.0041494161   -0.0154152285   -0.0389348695
H       -1.5901839112   -0.5533118405   -0.6230776696
H       -0.6057455814    2.1540378455    1.2878291665
8    
torsion grid (30,)
C       -1.6292165303    0.4910980527    1.2365950756
C       -1.0508459528    0.2407117275   -0.1443543995
O       -2.4193818726   -0.2351897210    1.7884124562
O       -1.0829818900    1.5542055707    1.9146803777
H       -1.0151758845    1.1500701777   -0.7545096675
H       -0.0245382965   -0.1230937631   -0.0294502041
H       -1.6445498104   -0.5153706070   -0.6573754439
H       -0.7838393091    2.2326430084    1.2864944757
8    
torsion grid (45,)
C       -1.6139163873    0.4907120444    1.2280144089
C       -1.0476824203    0.2272620219   -0.1540856827
O       -2.4137623969   -0.2200531625    1.7847721879
O       -1.0113481393    1.5254711582    1.9138212585
H       -0.9792996011    1.1377241876   -0.7594786045
H       -0.0325112032   -0.1646792707   -0.0346520266
H       -1.6621850114   -0.5093693247   -0.6712485706
H       -0.8933664080    2.2922892125    1.3284961441
8    
torsion grid (60,)
C       -1.6033145388    0.4763074915    1.2040421945
C       -1.0417588159    0.2064741101   -0.1767731078
O       -2.4211380953   -0.2156468679    1.7573317724
O       -0.9616177373    1.4919545924    1.8956125776
H       -0.9534988994    1.1204434878   -0.7735810078
H       -0.0326468736   -0.1999264788   -0.0541077295
H       -1.6656718553   -0.5182479870   -0.6998674108
H       -1.0245355424    2.3290267582    1.4061042473
8    
torsion grid (75,)
C       -1.5798630717    0.4958862122    1.1943277921
C       -1.0367536568    0.1899593520   -0.1835351935
O       -2.4519812208   -0.1270108387    1.7454795523
O       -0.8719755358    1.4863583899    1.8717867864
H       -0.9701573504    1.0951068269   -0.7962506156
H       -0.0189190643   -0.1973330342   -0.0720396825
H       -1.6623369382   -0.5516879491   -0.6804240166
H       -1.0801327628    2.3638035437    1.5107420979
8    
torsion grid (90,)
C       -1.5652465357    0.4963368542    1.1689016632
C       -1.0249734788    0.1648891477   -0.2012449185
O       -2.5127768189   -0.0345559122    1.6914559091
O       -0.8079536395    1.4596284372    1.8400068585
H       -1.0245343835    1.0611157055   -0.8309019067
H        0.0161061487   -0.1596022228   -0.1095207910
H       -1.6241488171   -0.6173828285   -0.6675290475
H       -1.1391696828    2.3504623142    1.6408455699
8    
torsion grid (105,)
C       -1.5882129695    0.5330192703    1.1215688519
C       -1.0282045767    0.1503203117   -0.2255210765
O       -2.6211560371    0.1221203523    1.5910944929
O       -0.7970903510    1.4716644776    1.7831581233
H       -1.0879023384    1.0210579273   -0.8875798869
H        0.0299001317   -0.1122433443   -0.1379797562
H       -1.5943491180   -0.6774180308   -0.6530461975
H       -1.2226248978    2.3438303055    1.7437107881
8    
torsion grid (120,)
C       -1.6120080525    0.5670184986    1.0774001499
C       -1.0319289312    0.1356638598   -0.2456789235
O       -2.7020477219    0.2561658241    1.4979490642
O       -0.7986926943    1.4804356428    1.7316798754
H       -1.1296627920    0.9775936343   -0.9395101369
H        0.0344428217   -0.0873246011   -0.1556021617
H       -1.5745932869   -0.7248115757   -0.6375290389
H       -1.2992072015    2.3033264944    1.8634764711
8    
torsion grid (135,)
C       -1.5995634397    0.5933038420    1.0598221107
C       -1.0206429783    0.1241790262   -0.2506153372
O       -2.7103811464    0.3355663669    1.4689203233
O       -0.7708181524    1.4913752756    1.6952457969
H       -1.1716632644    0.9294285067   -0.9774426071
H        0.0548422169   -0.0528721536   -0.1743607741
H       -1.5374617952   -0.7721358831   -0.5940125267
H       -1.3221735718    2.2271621825    2.0151222393
8    
torsion grid (150,)
C       -1.5927067001    0.6289467000    1.0375119307
C       -1.0163695442    0.1183991516   -0.2581576683
O       -2.6978860924    0.3743402342    1.4681821635
O       -0.7653522493    1.5421867709    1.6361774120
H       -1.1736408261    0.8926036043   -1.0163568810
H        0.0597143303   -0.0528895371   -0.1780129383
H       -1.5309875131   -0.7926788599   -0.5632200805
H       -1.3356687390    2.1551935367    2.1360082858
8    
torsion grid (165,)
C       -1.4602709642    0.4444518859    1.2011273382
C       -1.1167089836    0.1662862655   -0.2395559463
O       -2.3424157989   -0.0923393913    1.8401045129
O       -0.7019142789    1.4566918106    1.7141509597
H       -1.5786859541    0.9436083815   -0.8570008314
H       -0.0375881241    0.2084302190   -0.4042008205
H       -1.5140993728   -0.8054403758   -0.5318940014
H       -1.1385725434    1.7338264510    2.5421503293
8    
torsion grid (180,)
C       -1.4309859904    0.4633379507    1.1770531195
C       -1.1081012178    0.1695920990   -0.2654239011
O       -2.1438802942   -0.2012254766    1.9020098326
O       -0.8159222545    1.6017274464    1.6068730121
H       -1.4376096751    1.0009244384   -0.8955226252
H       -0.0260404613    0.0715174005   -0.3917819045
H       -1.6059294257   -0.7500920591   -0.5701147939
H       -1.0768985429    1.7153085083    2.5410112701
