24   
torsion grid (-165,)
C       -1.2690174965    1.3693427711    2.9126001541
C       -1.2323520874    0.2178243883    1.8908055794
C       -2.5926225325   -0.5051164143    1.8346417156
C       -0.7932368258    0.6780001267    0.5017295777
C       -1.4407852834    1.9639988218    0.0280743207
C        0.0838045141   -0.0224412874   -0.2493860920
C        0.5865815899    0.4236364183   -1.6077376559
C        0.6802324801   -1.3547297070    0.1616146381
H       -0.3100904095    1.8976871700    2.9501135215
H       -2.0490725689    2.1016207235    2.6804210921
H       -1.4766163794    0.9765826794    3.9141697436
H       -0.4975992708   -0.4976404926    2.2674240988
H       -2.5466356405   -1.3732352038    1.1690328643
H       -2.8932066794   -0.8511500554    2.8306726509
H       -3.3820121362    0.1580935366    1.4631483357
H       -1.3210637871    2.1347199171   -1.0417742916
H       -1.0334422967    2.8380923517    0.5510883820
H       -2.5172625730    1.9524077230    0.2344678268
H        1.6703311935    0.2645755293   -1.6737137484
H        0.1362907287   -0.1761423088   -2.4106458783
H        0.3994662944    1.4753291539   -1.8266251746
H        0.6733962128   -2.0425908676   -0.6931627804
H        1.7316771559   -1.2411580494    0.4591336249
H        0.1509407635   -1.8476274203    0.9775990457
24   
torsion grid (-150,)
C       -1.4889582311    1.2128973294    3.0351319513
C       -1.5502006325    0.0710346829    2.0025426093
C       -2.9699320699   -0.5226788345    1.9213825244
C       -1.0470522379    0.5124815473    0.6322348210
C       -1.6506755932    1.8067800260    0.1135737758
C       -0.1364496429   -0.1870333539   -0.0777108913
C        0.4175303739    0.2816910565   -1.4082934901
C        0.4474763259   -1.5194848698    0.3462716284
H       -0.4792380403    1.6328125299    3.0986879148
H       -2.1772846069    2.0279124587    2.7886919821
H       -1.7640456230    0.8409767367    4.0284797186
H       -0.8917551411   -0.7149984765    2.3788666121
H       -2.9955117992   -1.3800887903    1.2408632499
H       -3.3087994531   -0.8576450158    2.9087939260
H       -3.6946458393    0.2140876661    1.5570839880
H       -1.7089279604    1.8359543659   -0.9759744536
H       -1.0788701309    2.6842652342    0.4421391002
H       -2.6699304517    1.9399374936    0.4887529500
H        1.5017188145    0.1162691831   -1.4413162134
H       -0.0095654535   -0.2959777733   -2.2398522218
H        0.2432040183    1.3398944595   -1.6071975112
H        0.4628249273   -2.2060960533   -0.5096180776
H        1.4907489064   -1.4072679687    0.6716527708
H       -0.1034917482   -2.0129494456    1.1475777418
24   
torsion grid (-135,)
C       -1.3197434257    1.0844188086    2.9028653631
C       -1.4728759679   -0.0293963059    1.8485809541
C       -2.9254360701   -0.5407296596    1.7911428518
C       -0.9750881745    0.4171025801    0.4801772417
C       -1.6187535865    1.6844199047   -0.0664494093
C       -0.0278868672   -0.2416922984   -0.2208476257
C        0.4854304511    0.2522115267   -1.5582071981
C        0.6361953846   -1.5339672616    0.2054721388
H       -0.2826633619    1.4323206849    2.9574091419
H       -1.9530094466    1.9499776205    2.6814421184
H       -1.6066290682    0.7137515490    3.8935155086
H       -0.8546751355   -0.8617981748    2.1909326306
H       -3.0178234006   -1.3731749757    1.0858006881
H       -3.2521708044   -0.8894713615    2.7777633544
H       -3.6204110667    0.2446465248    1.4740055972
H       -1.8997407005    1.5836256865   -1.1183949455
H       -0.9508695262    2.5509821966    0.0162347438
H       -2.5301379792    1.9364895956    0.4810455161
H        1.5792806552    0.1739031544   -1.5964049087
H        0.1012141246   -0.3684445641   -2.3797487967
H        0.2219579977    1.2893632684   -1.7700625716
H        0.6379680919   -2.2450627001   -0.6306797119
H        1.6890650977   -1.3639223394    0.4685705068
H        0.1555581415   -2.0272819902    1.0507301668
24   
torsion grid (-120,)
C       -1.2985409920    1.0124396679    2.8067397587
C       -1.5233647047   -0.0615014104    1.7242662148
C       -3.0159694350   -0.4279588678    1.6093670389
C       -0.9394841712    0.3581410403    0.3820769871
C       -1.5519534730    1.6132573151   -0.2300907875
C        0.0485327209   -0.3113462295   -0.2502814159
C        0.6081191150    0.1354313776   -1.5848420570
C        0.7258915314   -1.5675111379    0.2539440661
H       -0.2330763378    1.2412758866    2.9144081121
H       -1.8199707900    1.9466818507    2.5721422711
H       -1.6724369780    0.6634382781    3.7761998497
H       -1.0067604557   -0.9599123299    2.0668623100
H       -3.1670865607   -1.2227216292    0.8713472835
H       -3.4001143765   -0.7798081682    2.5738102494
H       -3.6261753806    0.4301133552    1.3073761828
H       -2.0029403373    1.4134374851   -1.2081045059
H       -0.8092998236    2.4067522816   -0.3676417273
H       -2.3405346717    2.0254887402    0.4028293012
H        1.6952111485    0.2758657057   -1.5178540421
H        0.4431511141   -0.6359670196   -2.3492730512
H        0.1748193331    1.0657567071   -1.9527589573
H        0.6469276623   -2.3672974355   -0.4942511828
H        1.7993813093   -1.3893733161    0.4023308373
H        0.3231119061   -1.9531710689    1.1904007859
24   
torsion grid (-105,)
C       -1.5040123416    1.2009123951    3.1943005523
C       -1.8415498083    0.1185418256    2.1507292482
C       -3.3632780227   -0.1101791430    2.0630214556
C       -1.2404540799    0.4377217416    0.7882778034
C       -1.8543768591    1.6304572016    0.0670680780
C       -0.2361679185   -0.2716281548    0.2307279342
C        0.3099150336    0.0375709762   -1.1484353276
C        0.4767639241   -1.4387070430    0.8806811192
H       -0.4202251554    1.3191145248    3.2966032721
H       -1.9219585828    2.1755253857    2.9189638305
H       -1.9136823927    0.9333966781    4.1753181927
H       -1.4116133047   -0.8180076832    2.5117060027
H       -3.5998503515   -0.8973032838    1.3391578577
H       -3.7602236910   -0.4142704740    3.0382458930
H       -3.8982947551    0.7960837107    1.7601627860
H       -2.5081669735    1.3174435279   -0.7565881806
H       -1.0928775004    2.2925077922   -0.3546838450
H       -2.4636550230    2.2362575472    0.7418452527
H        1.2985463523    0.5128669542   -1.0815851015
H        0.4501768877   -0.8902594436   -1.7172496303
H       -0.3365263316    0.6902009191   -1.7368176980
H        0.2217673801   -2.3815403490    0.3779435640
H        1.5625468270   -1.3168556669    0.7759382786
H        0.2640606496   -1.5581359566    1.9433968918
24   
torsion grid (-90,)
C       -1.3957541817    1.0008240661    3.0560629090
C       -1.8013790388    0.0137144461    1.9444274038
C       -3.3341645918   -0.1136504791    1.8528745799
C       -1.1796625623    0.3902048498    0.6039921446
C       -1.8188024514    1.5824340313   -0.0886884397
C       -0.1382268392   -0.2758828440    0.0615940287
C        0.4368156628    0.0537714571   -1.3013928962
C        0.5931074258   -1.4233969395    0.7280498293
H       -0.3070412178    1.0367674152    3.1671138695
H       -1.7427395584    2.0173246972    2.8391558901
H       -1.8294344942    0.7031135929    4.0179830953
H       -1.4309911101   -0.9715464421    2.2360261482
H       -3.6242911509   -0.8205278474    1.0680027153
H       -3.7422027591   -0.4763220210    2.8030032935
H       -3.8144864543    0.8459507855    1.6354604991
H       -2.6393360034    1.2774803575   -0.7510668459
H       -1.1046321181    2.1508756526   -0.6875526433
H       -2.2459020901    2.2771384860    0.6405247112
H        1.3981962436    0.5779561388   -1.2085527843
H        0.6407938800   -0.8710609673   -1.8554295244
H       -0.2229380668    0.6648885784   -1.9187164175
H        0.3488832026   -2.3797578980    0.2457630858
H        1.6761799954   -1.2878335784    0.6147206440
H        0.3888901829   -1.5228851828    1.7946140226
24   
torsion grid (-75,)
C       -1.0074524902    1.1711204148    3.2375185877
C       -1.6647661752    0.2805917125    2.1647507158
C       -3.1866306442    0.1946564124    2.3843985212
C       -1.3015111514    0.7494806629    0.7571507024
C       -2.1051042448    1.9341344016    0.2578302431
C       -0.3261953910    0.1663748576    0.0274125963
C        0.0252286735    0.5656470247   -1.3917395152
C        0.5534790544   -0.9617918031    0.5299871261
H        0.0823318839    1.1701814258    3.1318453243
H       -1.3489519075    2.2094680146    3.1589287446
H       -1.2554059363    0.8171104234    4.2451650101
H       -1.2812694278   -0.7330695660    2.3024930750
H       -3.6634805156   -0.4273503672    1.6190205616
H       -3.4010708838   -0.2506628760    3.3622629113
H       -3.6623818117    1.1804692717    2.3626652655
H       -3.1241088206    1.6430763367   -0.0258993988
H       -1.6480246639    2.4315711582   -0.5976743423
H       -2.2083145640    2.6875132794    1.0472938091
H        0.9745082650    1.1180600358   -1.4221303879
H        0.1702813770   -0.3322279029   -2.0056767058
H       -0.7354870418    1.1740837570   -1.8818324851
H        0.2733239227   -1.9172493644    0.0657066268
H        1.5960070911   -0.7733068256    0.2444830191
H        0.5334149905   -1.0947197275    1.6120672312
24   
torsion grid (-60,)
C       -0.8603932113    1.1546323773    3.2191633627
C       -1.5263318134    0.2840816243    2.1346488741
C       -3.0476843019    0.2128346212    2.3590110426
C       -1.1447575985    0.7659599190    0.7341635826
C       -1.9555180790    1.9391477097    0.2250506601
C       -0.1338567305    0.2062954517    0.0336878281
C        0.2704087654    0.6165152861   -1.3681284792
C        0.7507669607   -0.9059409918    0.5643237072
H        0.2294424480    1.1448497439    3.1148973035
H       -1.1925909728    2.1967226737    3.1504914462
H       -1.1129092470    0.7921652677    4.2226971799
H       -1.1557184755   -0.7359461870    2.2601452452
H       -3.5400016545   -0.3738475806    1.5756941863
H       -3.2608677234   -0.2656978989    3.3212981373
H       -3.5088892936    1.2056038900    2.3796496709
H       -3.0234045383    1.7011951538    0.1716845529
H       -1.6390093549    2.2940683692   -0.7548106166
H       -1.8695573061    2.7878119214    0.9164938520
H        1.2117335124    1.1827771764   -1.3541551409
H        0.4557320773   -0.2763818941   -1.9785449159
H       -0.4741750876    1.2181313964   -1.8899266738
H        0.5095775146   -1.8634714838    0.0827647563
H        1.7991577701   -0.6930532328    0.3207179003
H        0.6924171738   -1.0480562544    1.6436399283
24   
torsion grid (-45,)
C       -0.8638694371    1.9087707493    3.3138306675
C       -0.8457668452    0.7371172972    2.3146819558
C       -2.1859912664   -0.0239065609    2.3420496987
C       -0.4901685349    1.1799499747    0.8964182134
C       -1.1978202197    2.4369345892    0.4306665413
C        0.3686468709    0.4891202150    0.1159409420
C        0.7906562300    0.9214817275   -1.2739563202
C        1.0228483574   -0.8173295802    0.5218992897
H        0.0800373368    2.4643230195    3.2915077277
H       -1.6755438208    2.6138461365    3.1072158819
H       -1.0090124523    1.5320232896    4.3324059600
H       -0.0729778471    0.0501929123    2.6675840178
H       -2.1488237625   -0.9043377381    1.6922418065
H       -2.4260949670   -0.3569283179    3.3587192108
H       -3.0116657902    0.6093659151    1.9982340350
H       -2.2622763664    2.3965968339    0.6896694663
H       -1.1419933369    2.5829282229   -0.6481690145
H       -0.7915271951    3.3350364716    0.9116660612
H        1.8740602584    0.7919424086   -1.3906990014
H        0.3192783925    0.2929328361   -2.0420013373
H        0.5621433240    1.9627838569   -1.5029910194
H        0.9936045401   -1.5224690468   -0.3181998273
H        2.0839992823   -0.6684464481    0.7642691987
H        0.5489503434   -1.3079316397    1.3725847583
24   
torsion grid (-30,)
C       -0.8119765535    1.3679462420    2.9675707930
C       -0.9554101063    0.1907488766    1.9839334987
C       -2.3610580492   -0.4343366343    2.0740953466
C       -0.6115905977    0.5958648621    0.5544957103
C       -1.2998714553    1.8578004548    0.0620350114
C        0.2368161292   -0.1068399152   -0.2258536999
C        0.6341999250    0.3285201303   -1.6221347906
C        0.8972621913   -1.4102626489    0.1754084358
H        0.1883580929    1.8104504878    2.9091259039
H       -1.5420637812    2.1598324744    2.7709085869
H       -0.9705947280    1.0243141614    3.9959187713
H       -0.2420460629   -0.5684729138    2.3120959851
H       -2.4384471757   -1.3144146431    1.4272684510
H       -2.5845715578   -0.7429246980    3.1021164451
H       -3.1379720860    0.2747560454    1.7669605569
H       -2.2741597510    1.9850964007    0.5434379604
H       -1.4761074493    1.8475127789   -1.0150718268
H       -0.7161970596    2.7575794789    0.2961865048
H        1.7127425965    0.1867513823   -1.7655394209
H        0.1366519936   -0.2868039982   -2.3846491157
H        0.4120611359    1.3750661614   -1.8346320229
H        0.8396573824   -2.1254420845   -0.6549075098
H        1.9658826568   -1.2632138505    0.3835199850
H        0.4477014907   -1.8882229146    1.0463926751
24   
torsion grid (-15,)
C       -0.9324771091    1.2711233779    3.1248106054
C       -1.1615120179    0.1345684292    2.1092165508
C       -2.6171941123   -0.3682590790    2.1606319391
C       -0.7536442774    0.5466162421    0.7008649546
C       -1.4286857528    1.8030823323    0.1671151894
C        0.1442428571   -0.1320986651   -0.0446224420
C        0.5702246950    0.3281586733   -1.4239992676
C        0.8319789721   -1.4162606670    0.3686733478
H        0.1085427747    1.6108036138    3.1042726998
H       -1.5720846589    2.1370240975    2.9238548507
H       -1.1578429144    0.9263192814    4.1403916082
H       -0.5259661985   -0.6938576201    2.4287378859
H       -2.7612625255   -1.2148278932    1.4812285214
H       -2.8783611052   -0.6939904930    3.1742837954
H       -3.3280088436    0.4147482627    1.8742572231
H       -2.2980956528    2.0762546371    0.7698249544
H       -1.7787391134    1.6788672803   -0.8613106781
H       -0.7521820846    2.6669154267    0.1823905892
H        1.6585861732    0.2408008434   -1.5331229695
H        0.1282672153   -0.3075459267   -2.2039517011
H        0.2994427259    1.3623546146   -1.6411247729
H        0.7860774057   -2.1438210721   -0.4518579919
H        1.8981365419   -1.2422215097    0.5679998806
H        0.4002408105   -1.8921658629    1.2495888581
24   
torsion grid (0,)
C       -0.6086351279    1.1487036915    2.6937455613
C       -0.9270687385    0.0344742472    1.6774809515
C       -2.4144936919   -0.3641151973    1.7407112690
C       -0.5045342958    0.4194118876    0.2661857611
C       -1.2126138175    1.6384732511   -0.3149465015
C        0.4254071662   -0.2497202195   -0.4491837865
C        0.8227628480    0.1618700870   -1.8514956121
C        1.1873076784   -1.4712956837    0.0180275169
H        0.4568659050    1.4007706230    2.6756431936
H       -1.1732573042    2.0645671014    2.4884368944
H       -0.8660196738    0.8261785776    3.7092224919
H       -0.3556605266   -0.8418494662    1.9888170915
H       -2.6282304639   -1.1857324444    1.0490223854
H       -2.6814436982   -0.6910818244    2.7523129592
H       -3.0737703350    0.4715585515    1.4822111372
H       -1.9331051548    2.0589419752    0.3896412313
H       -1.7665630478    1.3938198775   -1.2277216331
H       -0.5092922986    2.4405326416   -0.5641593137
H        1.9056374533    0.3354891922   -1.9086493597
H        0.6010757891   -0.6423873431   -2.5660608740
H        0.3223364312    1.0648417859   -2.2019580175
H        1.0441224221   -2.3004975124   -0.6874078301
H        2.2658103497   -1.2648288050    0.0358981350
H        0.9038620761   -1.8294497167    1.0076154050
24   
torsion grid (15,)
C       -0.4421969536    0.9325507212    2.8375241904
C       -0.9040709305   -0.0406280908    1.7356710530
C       -2.3954457851   -0.3938797878    1.8989547055
C       -0.6011475641    0.4954189224    0.3426573053
C       -1.4244477217    1.7030212304   -0.0853072468
C        0.3236461851   -0.0441166010   -0.4796985176
C        0.5698268492    0.4776067985   -1.8808332200
C        1.2287273951   -1.2079340537   -0.1344219744
H        0.6308027615    1.1344846118    2.7543478561
H       -0.9682576565    1.8918335290    2.7791702471
H       -0.6357677673    0.5118819143    3.8311877607
H       -0.3516916582   -0.9714695000    1.8795923384
H       -2.7160793033   -1.1045502960    1.1297548669
H       -2.5742870495   -0.8499865461    2.8792947021
H       -3.0375319501    0.4903643042    1.8275223980
H       -1.9261038248    2.1669761879    0.7672432428
H       -2.2101512302    1.4278829979   -0.8001970421
H       -0.8102682226    2.4764074703   -0.5546503584
H        1.5157439752    1.0347534106   -1.9318277188
H        0.6644905895   -0.3584833695   -2.5851499064
H       -0.2235945693    1.1297456790   -2.2485612935
H        0.9469811967   -2.1045319561   -0.7031422926
H        2.2621911651   -0.9732629665   -0.4200943049
H        1.2358090612   -1.4713613038    0.9236186261
24   
torsion grid (30,)
C       -0.4088611483    0.8518696444    2.8442992694
C       -0.9598284532   -0.0631748993    1.7335416164
C       -2.4666989805   -0.3193157018    1.9275875132
C       -0.6482665572    0.4879141297    0.3461601874
C       -1.5041914899    1.6678679424   -0.0826472221
C        0.3156358059   -0.0224585699   -0.4494127011
C        0.5836397969    0.4783207875   -1.8546355882
C        1.2526857035   -1.1461557158   -0.0556117325
H        0.6755713131    0.9700002989    2.7496061886
H       -0.8580125338    1.8505316424    2.8037071228
H       -0.6235850618    0.4341084991    3.8349629123
H       -0.4699162901   -1.0334445859    1.8411731736
H       -2.8599779446   -0.9716240487    1.1403673437
H       -2.6474519439   -0.8062143165    2.8924551435
H       -3.0467703877    0.6092304925    1.9158871743
H       -1.8154200622    2.2601798915    0.7830842588
H       -2.4242605829    1.3422655115   -0.5851873965
H       -0.9785308310    2.3447082689   -0.7585998825
H        1.4998519831    1.0840443513   -1.8904420675
H        0.7475224025   -0.3709593646   -2.5297026026
H       -0.2308631271    1.0727466029   -2.2705908959
H        0.9975276704   -2.0752991713   -0.5832850192
H        2.2785929310   -0.8938872580   -0.3525724518
H        1.2682120963   -1.3599771775    1.0135812704
24   
torsion grid (45,)
C       -0.4922058045    0.6665679477    2.6224837297
C       -1.1412534133   -0.1636395897    1.4975042823
C       -2.6509035873   -0.3351557483    1.7483656144
C       -0.8379162930    0.4333500276    0.1243229888
C       -1.7117467502    1.6107414623   -0.2601880047
C        0.1477185275   -0.0390306645   -0.6689729243
C        0.4467513231    0.4872942519   -2.0583872828
C        1.0940045550   -1.1563666972   -0.2744388861
H        0.5931528343    0.7233186472    2.4899507383
H       -0.8801510524    1.6914026640    2.6368229740
H       -0.6959036564    0.2222942490    3.6039604082
H       -0.7110599691   -1.1669157559    1.5421994384
H       -3.1234590112   -0.9134040208    0.9468552494
H       -2.8171484623   -0.8679804478    2.6912139250
H       -3.1684046972    0.6269087961    1.8208162932
H       -1.8051819760    2.3097251985    0.5791453426
H       -2.7293690273    1.2949019541   -0.5204096614
H       -1.3146194332    2.1799605371   -1.1007837426
H        1.3664318597    1.0884149999   -2.0623852286
H        0.6226562339   -0.3513953489   -2.7438057704
H       -0.3538016757    1.0922789591   -2.4851446581
H        0.8494087759   -2.0863756624   -0.8056679198
H        2.1185543793   -0.8938641539   -0.5664058974
H        1.1076084148   -1.3727506816    0.7941723786
24   
torsion grid (60,)
C       -0.4103237674    1.1617085255    2.6981632912
C       -0.3793488956    0.0936503160    1.5899472419
C       -1.6801673405   -0.7341647633    1.6002989649
C       -0.1098864278    0.6732159472    0.2004222618
C       -0.8694038505    1.9454337129   -0.1123655868
C        0.7117705864    0.0659288570   -0.6839102120
C        1.0425413778    0.6058013200   -2.0608380660
C        1.4075592647   -1.2568805918   -0.4250417968
H        0.4919448795    1.7827892842    2.6796401079
H       -1.2787247542    1.8227060977    2.6104037894
H       -0.4659388516    0.6790247480    3.6801627517
H        0.4403523470   -0.5816461053    1.8459262968
H       -1.6319804048   -1.5484559738    0.8700316046
H       -1.8595255817   -1.1703874673    2.5901512312
H       -2.5477531218   -0.1129562123    1.3505007575
H       -0.6240197091    2.7472293336    0.5924493831
H       -1.9497555864    1.7763118560   -0.0128853545
H       -0.6972326287    2.3181572486   -1.1211194283
H        2.1196235702    0.5121038003   -2.2488553389
H        0.5398487703    0.0190384568   -2.8418401859
H        0.7768449150    1.6530308923   -2.2064372542
H        1.3205751693   -1.9002235355   -1.3096034492
H        2.4827434674   -1.1081667768   -0.2554247127
H        1.0076628356   -1.8156079573    0.4213171156
24   
torsion grid (75,)
C       -0.4123769172    1.0072977151    2.5120317658
C       -0.4413559176   -0.0766546384    1.4184602196
C       -1.7768110636   -0.8458641708    1.4470504972
C       -0.1563225809    0.4865089846    0.0275052285
C       -0.8950714003    1.7694204849   -0.2993758142
C        0.6714262622   -0.1249797274   -0.8469485360
C        1.0228889227    0.4304002297   -2.2125799850
C        1.3563691192   -1.4520670811   -0.5844769393
H        0.5294982428    1.5663517619    2.4916834070
H       -1.2327203880    1.7241560375    2.4034846552
H       -0.5093839575    0.5463609194    3.5012944189
H        0.3492604643   -0.7859403098    1.6742024866
H       -1.7693888591   -1.6684184615    0.7244528011
H       -1.9656703241   -1.2645834992    2.4426206935
H       -2.6201207281   -0.1916276509    1.1985094504
H       -0.4575116481    2.6328682304    0.2169487844
H       -1.9375453746    1.7070180507    0.0335524343
H       -0.9154569093    1.9917785917   -1.3663338114
H        2.1001847997    0.3232821096   -2.3917110779
H        0.5190053204   -0.1340974748   -3.0092381001
H        0.7766235692    1.4852073625   -2.3383764921
H        1.2929916728   -2.0843924193   -1.4789247988
H        2.4265912159   -1.3101870341   -0.3809059688
H        0.9285524166   -2.0186236644    0.2431525470
24   
torsion grid (90,)
C       -0.6395409916    0.8691894651    2.6430229503
C       -0.7613124536   -0.2130568628    1.5530919710
C       -2.1620646378   -0.8551799836    1.5680291468
C       -0.4048181307    0.3261885121    0.1720934859
C       -1.1063809581    1.6177800554   -0.2143222338
C        0.4661089788   -0.2879243004   -0.6566432277
C        0.8732283102    0.2819835613   -2.0007318635
C        1.1440585060   -1.6119321066   -0.3682606251
H        0.3579657968    1.3217757069    2.6387237314
H       -1.3731797776    1.6710580031    2.5103793128
H       -0.8084684703    0.4312186333    3.6331822869
H       -0.0449406126   -0.9938045289    1.8180485148
H       -2.2242942518   -1.6715797327    0.8410222164
H       -2.3937513388   -1.2603456922    2.5600789843
H       -2.9422473197   -0.1269653043    1.3195538868
H       -0.5300302597    2.5013961047    0.0890953985
H       -2.0816132949    1.6960335719    0.2751458807
H       -1.2840885167    1.6922320103   -1.2888838155
H        1.9552527538    0.1689244405   -2.1432250111
H        0.3932742303   -0.2653805344   -2.8239465389
H        0.6379771359    1.3407858572   -2.1166307357
H        1.1068609530   -2.2491168872   -1.2609456061
H        2.2079036484   -1.4676445684   -0.1352689615
H        0.6938716782   -2.1744576333    0.4503093983
24   
torsion grid (105,)
C       -0.4516405351    0.7348347151    2.5104161150
C       -0.6763458156   -0.3109148052    1.4006494596
C       -2.1117846805   -0.8691923044    1.4489885680
C       -0.3299772367    0.2439802072    0.0253013536
C       -1.0686170155    1.5157424211   -0.3705465472
C        0.5681361990   -0.3268635506   -0.8054563059
C        0.9303294729    0.2739671237   -2.1484840142
C        1.3177546218   -1.6139279518   -0.5328404312
H        0.5763136532    1.1122227149    2.4904840550
H       -1.1258139256    1.5919733833    2.4100048035
H       -0.6318319522    0.2902058050    3.4957769266
H       -0.0031503596   -1.1416095589    1.6220740943
H       -2.2503057311   -1.6537416690    0.6977718840
H       -2.3273528196   -1.2969901690    2.4350460858
H       -2.8578321601   -0.0895488212    1.2594385751
H       -0.4218226461    2.3998450030   -0.3085108895
H       -1.9233463437    1.7025758592    0.2837237417
H       -1.4551967950    1.4656489203   -1.3923651564
H        2.0172090835    0.2438375198   -2.2963898971
H        0.4892393248   -0.3073250419   -2.9702542546
H        0.6109492889    1.3108036883   -2.2623822435
H        1.2706114246   -2.2661589445   -1.4143826940
H        2.3829107365   -1.4151117213   -0.3522383171
H        0.9356123875   -2.1842008341    0.3142880318
24   
torsion grid (120,)
C       -0.4118857518    0.8865288576    2.4829861310
C       -0.7321144628   -0.2051217963    1.4432289076
C       -2.2317107187   -0.5610128548    1.4578672011
C       -0.2574957601    0.1847125765    0.0499441704
C       -0.9221920324    1.4233844308   -0.5408710735
C        0.6842448670   -0.4937802004   -0.6407411512
C        1.1316725779   -0.0791800984   -2.0269974593
C        1.4155866202   -1.7274399817   -0.1567590496
H        0.6609074496    1.1054771573    2.5013199024
H       -0.9411357137    1.8218231454    2.2709590718
H       -0.7112605083    0.5609138946    3.4859150185
H       -0.1973037528   -1.1029345803    1.7583496060
H       -2.4491030318   -1.3652667159    0.7471717680
H       -2.5362944574   -0.8959420279    2.4561177436
H       -2.8594881978    0.2972356591    1.1951106381
H       -0.1944254436    2.2105638954   -0.7656647156
H       -1.6516408168    1.8551222467    0.1475252665
H       -1.4581160572    1.1977438815   -1.4692887049
H        2.2011509794    0.1714940418   -2.0275412144
H        1.0091882748   -0.9099963894   -2.7346153476
H        0.5891440830    0.7788291736   -2.4246164319
H        1.2154025396   -2.5765120680   -0.8239412234
H        2.5005652566   -1.5612607661   -0.1867970017
H        1.1587893847   -2.0365215710    0.8563725086
24   
torsion grid (135,)
C       -0.6158306354    0.8472561235    2.8532390615
C       -1.0242530984   -0.1850218785    1.7845552967
C       -2.5398956674   -0.4609559239    1.8324751709
C       -0.5711048244    0.2318293776    0.3915158907
C       -1.2937224899    1.4364161533   -0.1967390046
C        0.3976828666   -0.4054866303   -0.2997721185
C        0.7942145087   -0.0017685951   -1.7053784172
C        1.2114953276   -1.5756486233    0.2114166471
H        0.4689896178    0.9961730413    2.8566799683
H       -1.0862577778    1.8211521774    2.6782914627
H       -0.9188013417    0.5109526006    3.8516934670
H       -0.5337776057   -1.1252690379    2.0447231101
H       -2.8248390222   -1.2126883498    1.0886744803
H       -2.8284849514   -0.8345684051    2.8215201239
H       -3.1284012350    0.4421658002    1.6393915869
H       -0.6026494083    2.1458424665   -0.6602689339
H       -1.8425424212    1.9862697227    0.5716324030
H       -2.0264486894    1.1422365250   -0.9585723778
H        1.7664899160    0.5105289347   -1.7072811225
H        0.9119572707   -0.8919390458   -2.3360992949
H        0.0694122072    0.6527495693   -2.1914694577
H        0.9398704322   -2.5006624606   -0.3151574425
H        2.2765022515   -1.4056805119    0.0074815200
H        1.1105603919   -1.7578973384    1.2816949883
24   
torsion grid (150,)
C       -0.5208826710    0.6547583353    2.6948131550
C       -1.0069122072   -0.2816586666    1.5715952604
C       -2.5362100203   -0.4606229384    1.6269576244
C       -0.5367339007    0.1942234380    0.2011021705
C       -1.2890224875    1.3913989297   -0.3551474165
C        0.4727679879   -0.3936697634   -0.4755303108
C        0.8989063376    0.0316352371   -1.8664107876
C        1.3112331047   -1.5399375322    0.0528761067
H        0.5718615231    0.7240822103    2.6988935652
H       -0.9190125295    1.6685795750    2.5747829111
H       -0.8454030586    0.2874256389    3.6755109179
H       -0.5781320612   -1.2676186879    1.7640717279
H       -2.8834717022   -1.1303578056    0.8327490783
H       -2.8326891795   -0.8938536790    2.5888041947
H       -3.0660872553    0.4914779939    1.5196745978
H       -0.6689955706    2.0123934116   -1.0042161617
H       -1.6472539866    2.0369001372    0.4525461473
H       -2.1740731050    1.0868282801   -0.9285731873
H        1.8448130508    0.5901750196   -1.8365236753
H        1.0816946933   -0.8533975754   -2.4886914701
H        0.1598723073    0.6458030662   -2.3825181661
H        1.0576401125   -2.4807226824   -0.4545660094
H        2.3714403737   -1.3510460113   -0.1580662804
H        1.2185574255   -1.7017741773    1.1272985612
24   
torsion grid (165,)
C       -0.6149916062    0.5663042523    2.6557776247
C       -1.1923486599   -0.3185437823    1.5333521333
C       -2.7250144374   -0.4138505219    1.6485096068
C       -0.7348636167    0.1646405581    0.1580838686
C       -1.5152775979    1.3430277857   -0.3894732793
C        0.2989177833   -0.4015089248   -0.5012894919
C        0.7516432142    0.0107396606   -1.8876493378
C        1.1521755757   -1.5230055695    0.0588911659
H        0.4794569112    0.5717483807    2.6252408295
H       -0.9560727841    1.6035090833    2.5616344426
H       -0.9296041538    0.2030532138    3.6412897522
H       -0.8136710719   -1.3315001441    1.6886402761
H       -3.1459269824   -1.0305236433    0.8468587402
H       -3.0023487256   -0.8700055155    2.6053316431
H       -3.2035533849    0.5698545505    1.6043964434
H       -1.0208844925    1.8306059480   -1.2296497063
H       -1.6590717522    2.1041308601    0.3861455109
H       -2.5173291110    1.0448023051   -0.7218358737
H        1.6949919272    0.5722221022   -1.8430391573
H        0.9514290681   -0.8816010319   -2.4942608045
H        0.0243915694    0.6153651846   -2.4303425204
H        0.9173942220   -2.4787482531   -0.4293534993
H        2.2105896568   -1.3216491686   -0.1486486323
H        1.0546362399   -1.6623849433    1.1359143285
24   
torsion grid (180,)
C       -1.2497809288    1.4329831177    2.9284479692
C       -1.1816894513    0.2814780598    1.9089865310
C       -2.5218295710   -0.4797848519    1.8634471767
C       -0.7627369234    0.7365009237    0.5100229896
C       -1.4269772708    2.0116453166    0.0341448317
C        0.1010779394    0.0244756346   -0.2470468398
C        0.5761971602    0.4329360801   -1.6268516640
C        0.7066933376   -1.3004202885    0.1766098599
H       -0.3181273826    2.0091654496    2.9432699370
H       -2.0723782601    2.1237997281    2.7167116595
H       -1.4123889818    1.0311422361    3.9346929249
H       -0.4252230462   -0.4100796096    2.2869284651
H       -2.4558038884   -1.3498319455    1.2020968516
H       -2.8087705633   -0.8285515171    2.8625812133
H       -3.3295952771    0.1610396814    1.4921614387
H       -1.1130722572    2.3153192595   -0.9637748689
H       -1.2115463164    2.8493268267    0.7064742044
H       -2.5184021145    1.8985324245    0.0174158611
H        1.6616621434    0.2908233633   -1.7044498289
H        0.1247663770   -0.2046972943   -2.3991646429
H        0.3644189394    1.4705658114   -1.8852072937
H        0.6718609881   -2.0080015580   -0.6611674852
H        1.7673021081   -1.1818554735    0.4373311763
H        0.2039971432   -1.7737921155    1.0201628869
