15   
torsion grid (-165,)
C       -2.3805299463   -4.0011907077    3.9748690152
C       -3.1090708137   -5.0009789868    3.3199631990
C       -2.1755651819   -2.7651639526    3.3563197055
C       -3.6343063953   -4.7677426811    2.0491528902
C       -2.6945487040   -2.5211614678    2.0817405436
C       -3.4221783759   -3.5246306188    1.4287596942
O       -5.6957698577   -3.1915872631   -0.1855730444
P       -4.2198889014   -3.2615432415   -0.1722392604
Cl      -3.2964382187   -1.6056566613   -0.9939420086
Cl      -3.4854354259   -4.7944286381   -1.3584397371
H       -1.9725461650   -4.1872839968    4.9646536648
H       -3.2700058858   -5.9629003606    3.7983063823
H       -1.6099998356   -1.9873592533    3.8614955654
H       -4.1997768495   -5.5473698826    1.5467607617
H       -2.5253519480   -1.5613166752    1.6058731265
15   
torsion grid (-150,)
C       -2.3970015554   -3.9885155535    3.9771353066
C       -3.0327522731   -5.0292851944    3.2923863140
C       -2.2731904449   -2.7300707138    3.3805263508
C       -3.5450779786   -4.8166517896    2.0114245713
C       -2.7817686709   -2.5068002386    2.0992300621
C       -3.4107556889   -3.5549921507    1.4109130288
O       -5.6490626292   -2.8538533810   -0.1411657470
P       -4.2235962217   -3.2419416233   -0.1746355653
Cl      -3.0225958596   -1.8506200472   -1.1253723290
Cl      -3.8758952075   -4.9530141315   -1.2869762069
H       -1.9969968668   -4.1588130034    4.9729907618
H       -3.1307286664   -6.0082701044    3.7528641836
H       -1.7800816299   -1.9195207034    3.9095831315
H       -4.0331255787   -5.6309612125    1.4850435909
H       -2.6769301403   -1.5283659639    1.6415851480
15   
torsion grid (-135,)
C       -2.4003982116   -3.9833695433    3.9785106064
C       -2.9491924080   -5.0519776943    3.2643116956
C       -2.3664839056   -2.7047359791    3.4109612689
C       -3.4644142687   -4.8504871900    1.9811967254
C       -2.8787884388   -2.4922480028    2.1308591904
C       -3.4182076576   -3.5710699514    1.4104294296
O       -5.5360583916   -2.5455691210   -0.1247593167
P       -4.2168995899   -3.2100416356   -0.1713024791
Cl      -2.8058538859   -2.1091959930   -1.2143525033
Cl      -4.2337488199   -5.0013475217   -1.2025836709
H       -1.9990395914   -4.1454455108    4.9752034686
H       -2.9782754690   -6.0455467706    3.7025131520
H       -1.9430592995   -1.8712425594    3.9641598232
H       -3.8849123925   -5.6864725687    1.4323315081
H       -2.8487307657   -1.4972295314    1.6967989955
15   
torsion grid (-120,)
C       -2.3847085624   -3.9772520219    3.9789773142
C       -2.8681658254   -5.0644023731    3.2464889489
C       -2.4390846112   -2.6872621984    3.4377405410
C       -3.4034121486   -4.8706875457    1.9697507335
C       -2.9758846199   -2.4817037871    2.1672288839
C       -3.4467818935   -3.5802923301    1.4270694017
O       -5.4035456286   -2.3083704634   -0.1208985297
P       -4.2247648037   -3.1986621031   -0.1580796847
Cl      -2.6830444814   -2.4149250468   -1.3001906774
Cl      -4.5785327605   -5.0160958228   -1.0726591190
H       -1.9682507859   -4.1326214250    4.9705553454
H       -2.8320564553   -6.0660803228    3.6653154390
H       -2.0683251287   -1.8394525930    4.0067623299
H       -3.7738081022   -5.7200124236    1.4060887212
H       -3.0241534186   -1.4774946822    1.7555110694
15   
torsion grid (-105,)
C       -2.3985735345   -3.9830392044    3.9722851434
C       -2.8012339889   -5.0678080729    3.1883500215
C       -2.5259080180   -2.6772334277    3.4844576810
C       -3.3265307645   -4.8560966801    1.9106884871
C       -3.0535548802   -2.4535319587    2.2129060214
C       -3.4394327121   -3.5490026002    1.4204114369
O       -5.1706814986   -2.0542005158   -0.1816883545
P       -4.1611775207   -3.1333585713   -0.1803917698
Cl      -2.5248252050   -2.6727242187   -1.3675552379
Cl      -4.8281332152   -4.9081420578   -0.9943528671
H       -1.9907087069   -4.1533324897    4.9650012866
H       -2.7107789448   -6.0811449661    3.5692092691
H       -2.2229869743   -1.8322631861    4.0962859322
H       -3.6357229868   -5.7020527311    1.3061855090
H       -3.1705588614   -1.4394954087    1.8414245666
15   
torsion grid (-90,)
C       -2.4037814638   -3.9923962164    3.9700940534
C       -2.7342198442   -5.0709876607    3.1430743019
C       -2.5855720923   -2.6797270747    3.5215678522
C       -3.2410660837   -4.8440919299    1.8618343019
C       -3.0956186792   -2.4402046360    2.2445424629
C       -3.4089321178   -3.5276843999    1.4116903742
O       -4.8940495713   -1.8748184109   -0.2690491566
P       -4.0774227755   -3.1048297494   -0.2080798984
Cl      -2.4183206500   -3.0104866445   -1.4470069627
Cl      -5.0458217018   -4.7969646246   -0.8872322810
H       -2.0110515278   -4.1750247336    4.9667432162
H       -2.6023609855   -6.0901617330    3.4951436898
H       -2.3400826037   -1.8417194770    4.1678056028
H       -3.4978048691   -5.6834077807    1.2238140648
H       -3.2597133784   -1.4237661452    1.8991340244
15   
torsion grid (-75,)
C       -2.4065522198   -3.9922077552    3.9579119760
C       -2.6612869370   -5.0642817630    3.0941643203
C       -2.6663802994   -2.6802841766    3.5499514573
C       -3.1727635936   -4.8284881185    1.8175630718
C       -3.1810842966   -2.4326488744    2.2750482221
C       -3.4236531028   -3.5107513536    1.4095560385
O       -4.7085558982   -1.7607511039   -0.3322396996
P       -4.0774961671   -3.0918091854   -0.2153034478
Cl      -2.4773964486   -3.3436962148   -1.5075948006
Cl      -5.3116652721   -4.6619790959   -0.7411972623
H       -2.0102579260   -4.1817111946    4.9518908471
H       -2.4658584116   -6.0833549212    3.4157580646
H       -2.4762983371   -1.8495866858    4.2237193983
H       -3.3719071441   -5.6611259540    1.1497732405
H       -3.4017482620   -1.4193790333    1.9533792712
15   
torsion grid (-60,)
C        1.8753279239   -1.0549159183   -0.0605826254
C        2.9411005476   -1.6155248902    0.6554522922
C        0.7893209183   -0.4918561150    0.6154746367
C        2.9232344666   -1.6160360595    2.0497767478
C        0.7600785115   -0.4858912347    2.0129559678
C        1.8291540583   -1.0520569378    2.7225726379
O        0.5718606659   -0.2587753980    5.0760558554
P        1.7161643996   -1.0091696120    4.5183055570
Cl       1.7670366285   -2.9937820863    5.1046998157
Cl       3.5613948722   -0.3302781244    5.1614999353
H        1.8950189889   -1.0562938216   -1.1471476960
H        3.7851377968   -2.0497782983    0.1271568122
H       -0.0347533323   -0.0548496360    0.0586106095
H        3.7504920092   -2.0487170440    2.6051195281
H       -0.0741290170   -0.0473064000    2.5519508183
15   
torsion grid (-45,)
C        1.7685367295   -1.0772716551    0.0997547356
C        2.7121572186   -1.2683696112    1.1175120683
C        0.6406978790   -0.2822990872    0.3223321846
C        2.5317137799   -0.6630446887    2.3606332324
C        0.4485415897    0.3289060525    1.5646313354
C        1.3999526521    0.1369014783    2.5770548105
O       -0.2305744596    1.6196257755    4.2796487092
P        1.0855916862    0.9616120433    4.1454548243
Cl       1.4707308079   -0.4639352860    5.5941156828
Cl       2.6862752935    2.2510433944    4.3969439284
H        1.9137900423   -1.5522418311   -0.8668243661
H        3.5857621968   -1.8898665121    0.9425549961
H       -0.0918154212   -0.1384785163   -0.4669150035
H        3.2618786393   -0.8128297323    3.1507315385
H       -0.4259973493    0.9436885625    1.7544852277
15   
torsion grid (-30,)
C        1.7785807458   -1.0650988806    0.0940359863
C        2.6691093245   -1.3437457137    1.1376389637
C        0.6927118713   -0.2094405665    0.3038931211
C        2.4816808261   -0.7637746080    2.3928998340
C        0.4928397813    0.3748161338    1.5567759855
C        1.3974243440    0.1019775657    2.5950911701
O       -0.3282829411    1.3629506977    4.3832194105
P        1.0615232302    0.9091449431    4.1696582046
Cl       1.7742098902   -0.3780532590    5.6205378926
Cl       2.4434544032    2.4514389253    4.2698196447
H        1.9288306768   -1.5206220058   -0.8810879356
H        3.5072475179   -2.0155659809    0.9755501107
H       -0.0035360362   -0.0008340256   -0.5034717082
H        3.1719699971   -0.9834808948    3.2015020649
H       -0.3566954233    1.0270681527    1.7351893575
15   
torsion grid (-15,)
C        1.7808814019   -1.0631941496    0.0852468185
C        2.6233533079   -1.4123154436    1.1455484696
C        0.7454677594   -0.1432976644    0.2836818378
C        2.4415825235   -0.8388230227    2.4059731888
C        0.5507531734    0.4326566952    1.5399598715
C        1.4124620998    0.0927122019    2.5968123190
O       -0.3666136436    1.1260330967    4.4814696424
P        1.0587304922    0.8829836283    4.1781767829
Cl       2.0647441231   -0.2187057715    5.6065855903
Cl       2.1763045271    2.6298821587    4.1394968393
H        1.9266084554   -1.5129374055   -0.8932207467
H        3.4208214861   -2.1344216326    0.9950305632
H        0.0830199985    0.1197432988   -0.5361271916
H        3.0969911903   -1.1136986162    3.2257270567
H       -0.2653409632    1.1302046377    1.7040068812
15   
torsion grid (0,)
C        1.7716919115   -1.0657066459    0.0649701290
C        2.5732129575   -1.4827800090    1.1310831724
C        0.7932652835   -0.0844114065    0.2629925964
C        2.4075518885   -0.9183703699    2.3989490334
C        0.6155022968    0.4820626217    1.5249103732
C        1.4370822124    0.0731961781    2.5904061685
O       -0.3462135499    0.8508600633    4.6000744482
P        1.0725640841    0.8288213935    4.1884887534
Cl       2.3410226764   -0.0618606678    5.5527069946
Cl       1.8831088027    2.7323677716    4.0355277258
H        1.9049469249   -1.5074825515   -0.9188506934
H        3.3275880235   -2.2498563864    0.9807717403
H        0.1628362682    0.2344233560   -0.5622104209
H        3.0344385915   -1.2446809669    3.2216968748
H       -0.1557950468    1.2307629977    1.6820162131
15   
torsion grid (15,)
C        1.7721527720   -1.0666394584    0.0550374092
C        2.5160690208   -1.5513316304    1.1338072232
C        0.8616075678   -0.0202971581    0.2443289131
C        2.3588166941   -0.9926347345    2.4054359258
C        0.6930049614    0.5413062278    1.5095440672
C        1.4541685825    0.0607495650    2.5895318090
O       -0.2891431848    0.5613987319    4.7276391079
P        1.0801525276    0.7645827939    4.2110659086
Cl       2.5653940837    0.0882923445    5.4778186189
Cl       1.5626653522    2.7704265882    4.0116717556
H        1.8993776046   -1.5031453463   -0.9319045480
H        3.2203140713   -2.3659879396    0.9908836765
H        0.2787780902    0.3558333090   -0.5916524916
H        2.9424491134   -1.3720961182    3.2371153366
H       -0.0203411963    1.3480706208    1.6525740367
15   
torsion grid (30,)
C        1.7759421094   -1.0712584240    0.0597471710
C        2.4616601577   -1.5944265366    1.1595933408
C        0.9339744670    0.0347899038    0.2194776982
C        2.3122214553   -1.0161009286    2.4226114040
C        0.7770278353    0.6195244511    1.4765187366
C        1.4771274491    0.0992814925    2.5776282269
O       -0.1501239552    0.3658468606    4.8548456046
P        1.1149585236    0.7803447234    4.2134471849
Cl       2.7897916377    0.3763146367    5.3571310139
Cl       1.2504310382    2.8308820894    3.9534537427
H        1.8974874048   -1.5232654682   -0.9208964079
H        3.1151746083   -2.4537030364    1.0387257468
H        0.3979586831    0.4429078103   -0.6326888719
H        2.8517385402   -1.4259429898    3.2700211684
H        0.1232949881    1.4787638609    1.5927114521
15   
torsion grid (45,)
C        1.7754243889   -1.0753414971    0.0679533073
C        2.3844409840   -1.6465556461    1.1902747391
C        1.0023378019    0.0815447053    0.2035233969
C        2.2234568731   -1.0644892155    2.4485232488
C        0.8353480906    0.6726352583    1.4579602272
C        1.4538605908    0.1024723887    2.5802206820
O        0.0311909484    0.1125274489    5.0060094459
P        1.1235781484    0.7459426060    4.2383414378
Cl       2.9513890491    0.6482005641    5.2063351307
Cl       0.8682314536    2.7833087141    3.9853443109
H        1.9051761645   -1.5301066553   -0.9103585634
H        2.9860850662   -2.5453147032    1.0887528956
H        0.5282182201    0.5280003790   -0.6659216029
H        2.7031161783   -1.5116820966    3.3137031649
H        0.2381628714    1.5736503778    1.5531868199
15   
torsion grid (60,)
C        1.7929481981   -1.0711007874    0.0631805839
C        2.3080562327   -1.6886852219    1.2089857838
C        1.0892773525    0.1310710249    0.1719129485
C        2.1192015805   -1.1076929258    2.4626346905
C        0.8975604813    0.7245144374    1.4228586645
C        1.4139880193    0.1037728893    2.5674183718
O        0.2861457134   -0.0741228097    5.1291724889
P        1.1374113539    0.7398748537    4.2366784243
Cl       3.0458397728    1.0064572296    4.9989927677
Cl       0.4758082551    2.6820046640    3.9995057175
H        1.9418429063   -1.5267132853   -0.9120175604
H        2.8556145833   -2.6233537259    1.1276953746
H        0.6886794986    0.6127987939   -0.7155049149
H        2.5186348265   -1.5927923368    3.3487132911
H        0.3559388957    1.6611738490    1.4978803929
15   
torsion grid (75,)
C        1.8206073754   -1.0776005017    0.0564792107
C        2.2147904479   -1.7518600113    1.2181758510
C        1.1930342766    0.1680099015    0.1460283246
C        1.9810378135   -1.1836103501    2.4702434756
C        0.9587164809    0.7496208162    1.3950773372
C        1.3467300297    0.0683029188    2.5554496956
O        0.5508876850   -0.2085324190    5.2203718261
P        1.1274852489    0.7187750502    4.2246552217
Cl       3.0242629795    1.3579163703    4.7653708559
Cl       0.0872375514    2.4897788937    4.0254423966
H        2.0032612455   -1.5238043082   -0.9173616681
H        2.7016353182   -2.7206126766    1.1504306691
H        0.8869148752    0.6921091173   -0.7549114453
H        2.2769032104   -1.7113076270    3.3725102738
H        0.4794690343    1.7206471444    1.4581835506
15   
torsion grid (90,)
C        2.1210203784   -0.8467508435    0.2314289062
C        2.2223635612   -0.8143352838    1.6264095574
C        1.7234481217    0.2950453628   -0.4721889052
C        1.9261936386    0.3583244107    2.3233363146
C        1.4295307954    1.4754155556    0.2134584926
C        1.5236876458    1.5008644655    1.6114457647
O        0.6900710865    2.7586498499    3.9544913586
P        1.2401010916    2.9801716062    2.6009810713
Cl       3.0804885238    3.9329832102    2.6461472246
Cl       0.1105848288    4.2457172738    1.4238822785
H        2.3498509134   -1.7622630849   -0.3074435721
H        2.5284446395   -1.7015903141    2.1734303275
H        1.6429947121    0.2691584370   -1.5551982913
H        1.9896051184    0.3859312524    3.4071647611
H        1.1261672272    2.3607196682   -0.3359112211
15   
torsion grid (105,)
C        1.6843307655   -1.0355354697    0.4153550400
C        2.1214848267   -1.9801947336    1.3488483949
C        2.0764933071    0.3038302919    0.5295468412
C        2.9540437671   -1.5921853811    2.4015432717
C        2.9097590907    0.7028418418    1.5748927430
C        3.3417672052   -0.2478128623    2.5109396056
O        4.5272794817   -0.8283200934    4.9632197956
P        4.4732843875    0.1472071515    3.8545133208
Cl       6.3077125276    0.4208123863    2.9310756399
Cl       3.9903535712    2.0689786203    4.4394635554
H        1.0358721216   -1.3410118466   -0.4014272016
H        1.8144420429   -3.0185534219    1.2611818130
H        1.7337940283    1.0368564812   -0.1952323859
H        3.2924559538   -2.3149603284    3.1377744070
H        3.2142722116    1.7415104004    1.6615307896
15   
torsion grid (120,)
C        1.7887642532   -1.0894031591    0.0618228157
C        1.9690923312   -1.8664933103    1.2094675468
C        1.4301226642    0.2605904494    0.1705951385
C        1.7925516380   -1.2994383197    2.4748678388
C        1.2519351345    0.8372991300    1.4276151368
C        1.4325318493    0.0522326271    2.5760092833
O        1.3579903546   -0.2635450045    5.3410668713
P        1.2491128684    0.7150749055    4.2392121142
Cl       2.6321313629    2.2506774948    4.3587195428
Cl      -0.5380431306    1.7562884096    4.2125582307
H        1.9263016596   -1.5339705221   -0.9202424560
H        2.2462886207   -2.9133518811    1.1232898314
H        1.2895573534    0.8617934042   -0.7232039777
H        1.9262311890   -1.8912953911    3.3751795389
H        0.9731624895    1.8837990086    1.5120914363
15   
torsion grid (135,)
C        2.2294549115   -1.9069006842   -0.4045479819
C        3.5529553106   -1.9951051324   -0.8452149543
C        1.8847234494   -2.3234644549    0.8878781682
C        4.5432535160   -2.5006127705    0.0018955604
C        2.8636510865   -2.8299809905    1.7420169447
C        4.1906430762   -2.9137819646    1.2949192574
O        6.8795931646   -3.4654709985    1.7641259580
P        5.5138802201   -3.5808620635    2.3162629351
Cl       5.2713372907   -2.6894662850    4.1673326983
Cl       4.9449080310   -5.5310463584    2.7171966155
H        1.4634061433   -1.5123158868   -1.0667240632
H        3.8180123172   -1.6702965837   -1.8474072060
H        0.8555947864   -2.2529321125    1.2284812015
H        5.5759717838   -2.5711641315   -0.3257373023
H        2.5972630880   -3.1529327834    2.7443216255
15   
torsion grid (150,)
C        2.2211512903   -1.9283720866   -0.4129818283
C        3.5344950377   -2.0784973594   -0.8687108034
C        1.8941776712   -2.2462808365    0.9107508689
C        4.5274521046   -2.5474078636   -0.0051748398
C        2.8767324689   -2.7180831990    1.7818411600
C        4.1933168340   -2.8619616565    1.3212969210
O        6.8964446277   -3.2370470886    1.8900132053
P        5.5196808596   -3.5338423081    2.3365643108
Cl       5.0981271119   -2.9342427073    4.2689656109
Cl       5.1165492364   -5.5655004251    2.4358835548
H        1.4516360039   -1.5623286420   -1.0873848984
H        3.7890743620   -1.8289519021   -1.8948717242
H        0.8741054053   -2.1270005466    1.2647291260
H        5.5523577958   -2.6579000759   -0.3462973981
H        2.6206751261   -2.9650295284    2.8076303338
15   
torsion grid (165,)
C        2.2206872336   -1.9396277017   -0.4074852329
C        3.5183720241   -2.1669658458   -0.8783800882
C        1.9124875573   -2.1605674001    0.9388634400
C        4.5121307204   -2.6140025031   -0.0062611083
C        2.8966414279   -2.6135338744    1.8200928458
C        4.1970394052   -2.8313144113    1.3457861363
O        6.8921748767   -2.9848360863    2.0558363296
P        5.5347936951   -3.4792050733    2.3650191908
Cl       4.9437207478   -3.2022351129    4.3252212284
Cl       5.3702752202   -5.5387197455    2.1711930245
H        1.4504283262   -1.5889007253   -1.0890549870
H        3.7595624982   -1.9931634542   -1.9232462009
H        0.9055388756   -1.9821422169    1.3054375911
H        5.5241672663   -2.7788476709   -0.3641089420
H        2.6522297198   -2.7892832624    2.8624259619
15   
torsion grid (180,)
C       -2.3619361832   -4.0232968476    3.9742358388
C       -3.1956688757   -4.9671794540    3.3629351350
C       -2.0826419071   -2.8135944996    3.3326663837
C       -3.7521675906   -4.7031548404    2.1117228195
C       -2.6301149544   -2.5405326663    2.0759349034
C       -3.4691952207   -3.4842203768    1.4705791881
O       -5.6783770675   -3.5042193595   -0.2494341449
P       -4.2242056592   -3.2612903371   -0.1540406391
Cl      -3.6243663570   -1.4003601927   -0.8192921238
Cl      -3.1278485612   -4.5221168024   -1.3841294809
H       -1.9306118715   -4.2321047086    4.9495205036
H       -3.4147379802   -5.9076941756    3.8604462810
H       -1.4358256652   -2.0802178468    3.8058049874
H       -4.4068634399   -5.4319626089    1.6422194304
H       -2.4022408596   -1.6037621963    1.5790839694
