27   
torsion grid (-165,)
C        0.8353182017    1.0587852770    1.5989020867
C        0.7536425292    1.6693810186    2.8656070934
C       -0.1131865462   -0.7438252923   -3.9242523310
C       -0.4360894716   -1.8849599731   -4.7148861824
C       -1.5012228511    0.3274232159    1.7229637271
C       -0.2644061917    0.3947714766    1.0471782916
C       -0.4664926035    1.6091544237    3.5112882273
C       -1.5669012106    0.9584597549    2.9478088539
C       -0.8477279730   -0.6864204686   -2.7656073600
C       -1.4116602872   -2.6511215237   -4.1248510004
C       -2.2315919757    1.9374424308    4.8460880271
N       -0.1578864614   -0.2671744282   -0.2277450239
O       -2.0978484373    1.0605385305   -1.2045662512
O        0.2450348661    1.5683626073   -2.0753671019
O       -0.8057708244    2.1000157675    4.7533664122
O       -2.6331979025    1.0170272444    3.8183739326
S       -1.9620653238   -2.0123133120   -2.6034860639
S       -0.7561386581    0.6198126833   -1.5761237197
Cl      -2.0867316080   -4.1132311939   -4.7488640697
H        1.7630637741    1.1176246813    1.0365377580
H        1.6052534102    2.1753364149    3.3082276367
H        0.6164363749    0.0135368694   -4.1888440981
H        0.0206189731   -2.1289485510   -5.6671217301
H       -2.3486928311   -0.1875262502    1.2866668822
H       -2.4851830405    1.5217721045    5.8231785707
H       -2.7187496679    2.9070981625    4.6762946274
H        0.8082454560   -0.5201713012   -0.4392752843
27   
torsion grid (-150,)
C        0.9004473713    1.2256955375    1.6503122554
C        0.7027872981    1.7672776333    2.9356129362
C       -0.1641691624   -0.8210125319   -3.9337736187
C       -0.6542833840   -1.9723942227   -4.6175975535
C       -1.3679971369    0.2995878248    1.6148436617
C       -0.1090899020    0.5001569271    1.0107995805
C       -0.5396266383    1.5780144844    3.5094259675
C       -1.5507285210    0.8666449737    2.8587300555
C       -0.8053258627   -0.6109795335   -2.7387945106
C       -1.6549867785   -2.5941144497   -3.9124584754
C       -2.3932472265    1.6993301165    4.7561452331
N        0.1239471783   -0.0927074018   -0.2787629784
O       -1.7604224848    1.3366731865   -1.2281676934
O        0.5671353464    1.5423796953   -2.2715456301
O       -0.9832866948    1.9810891787    4.7503267767
O       -2.6624033362    0.7979622950    3.6695847799
S       -2.0301794422   -1.8013559445   -2.4095448436
S       -0.4927382386    0.7452071232   -1.6458351892
Cl      -2.5155330545   -4.0154867410   -4.3841494528
H        1.8484701837    1.3846387664    1.1438250938
H        1.4851243002    2.3193151445    3.4458781315
H        0.6184237960   -0.1645155993   -4.2976397185
H       -0.2929240894   -2.3240511093   -5.5770875630
H       -2.1466534539   -0.2638295251    1.1144714214
H       -2.6621110171    1.2193932138    5.6990990692
H       -2.9503714163    2.6329236626    4.6000354836
H        1.1132039602   -0.2729815707   -0.4494291728
27   
torsion grid (-135,)
C        1.0353655624    0.1704268032    1.9113749802
C        0.8440620452    0.5339202910    3.2587518216
C        0.0544290074    0.2354173793   -4.0810883749
C       -1.0306022293    0.1266054858   -5.0008148451
C       -1.1592405574    1.0603989904    1.2865060007
C        0.0516994454    0.4199770882    0.9499721232
C       -0.3378251821    1.1776461153    3.5710297567
C       -1.3115175081    1.4390393405    2.6040842743
C       -0.3075112665    0.8705766394   -2.9207862202
C       -2.1800667335    0.6848467440   -4.4994402154
C       -1.9684699431    2.3747893298    4.5269821129
N        0.2389102837    0.0032192824   -0.4118737990
O        0.4311951581    2.4910238012   -0.9916668193
O        2.1127826860    0.8198147889   -1.9873108685
O       -0.7785480140    1.6160081596    4.8011223658
O       -2.3969477293    2.0482584215    3.1940964807
S       -1.9749121973    1.3655013334   -2.9105025449
S        0.7624691984    1.1819408694   -1.5459975933
Cl      -3.7117392814    0.7764546063   -5.2926955909
H        1.9677975772   -0.3005895063    1.6126101169
H        1.5961025207    0.3314910076    4.0141877406
H        1.0616967656   -0.1243658702   -4.2593034878
H       -0.9683140107   -0.3320528759   -5.9809790910
H       -1.9241637607    1.2430128368    0.5403843784
H       -2.7487580968    2.0927540619    5.2365220087
H       -1.7359301242    3.4468113837    4.5809148829
H        0.8627326198   -0.7979248745   -0.4996404445
27   
torsion grid (-120,)
C        1.1669958393    0.3051840689    1.9624110398
C        0.8576584934    0.7302510584    3.2688867720
C       -0.0994095605    0.1057647363   -3.9514928492
C       -1.2777901976    0.1368096217   -4.7548828354
C       -1.0770750061    0.8812084620    1.1689345946
C        0.2180149137    0.3713599706    0.9383984017
C       -0.4064901654    1.2485840730    3.4754603436
C       -1.3475187368    1.3269516389    2.4463416027
C       -0.2196096847    0.8713499160   -2.8208024810
C       -2.2533547561    0.9253151011   -4.1975646416
C       -2.2173263591    2.3006012509    4.2628748687
N        0.5308389723   -0.0975493065   -0.3812507677
O        0.8654003869    2.3880497112   -0.9905502145
O        2.2638733058    0.5476757431   -2.1308428646
O       -0.9644546338    1.7102928929    4.6479355751
O       -2.5284076968    1.8382032436    2.9373590083
S       -1.7637766758    1.6643505410   -2.6993483311
S        1.0110291058    1.0520512088   -1.5613550388
Cl      -3.8199956841    1.2428394087   -4.8527275962
H        2.1637322132   -0.0679448638    1.7439101089
H        1.5832776990    0.6691709593    4.0732484462
H        0.8039069334   -0.4435714519   -4.1923326963
H       -1.3995499288   -0.3869714550   -5.6960851542
H       -1.8186173463    0.9089963726    0.3782172181
H       -2.9983516707    1.9737098006    4.9520205713
H       -2.1150320468    3.3940155008    4.2507712139
H        1.2279038866   -0.8405559249   -0.3951943841
27   
torsion grid (-105,)
C        1.2768294419    0.5325027092    1.8793419587
C        0.8823527308    1.0310349481    3.1349797006
C       -0.3473596839    0.1306336916   -3.8097210489
C       -1.5858161778    0.3769097745   -4.4718536597
C       -1.0268052692    0.6047332755    1.0498923169
C        0.3417489423    0.3159593881    0.8633017913
C       -0.4581105255    1.3287430242    3.2972229761
C       -1.3885044062    1.1252149213    2.2761583676
C       -0.1679421014    0.9451675792   -2.7215597420
C       -2.3043002244    1.3711105691   -3.8542182193
C       -2.4383994014    2.1076510108    3.9899993016
N        0.7390571591   -0.2051032402   -0.4144618644
O        1.3316045572    2.2497362484   -1.0375490211
O        2.3161860641    0.2515202758   -2.3297538842
O       -1.1007546844    1.8021393527    4.4197646040
O       -2.6476302977    1.4612049450    2.7228580659
S       -1.4931348002    2.0454575354   -2.4706089235
S        1.2178665899    0.9151156092   -1.6220840283
Cl      -3.8460428849    1.9806581918   -4.3414393002
H        2.3267978011    0.3296019197    1.6894142168
H        1.5983422627    1.1910959981    3.9343525173
H        0.3883868059   -0.6032150362   -4.1195255524
H       -1.9278754494   -0.1435109367   -5.3591321350
H       -1.7498035340    0.4105926566    0.2655432236
H       -3.1509345540    1.7152184854    4.7180524490
H       -2.5397440774    3.1939744804    3.8644689512
H        1.4771666221   -0.9068033375   -0.3676715532
27   
torsion grid (-90,)
C        1.3584301944    0.6411194392    1.7971035480
C        0.8598421914    1.2173889723    2.9800648602
C       -0.5507776416   -0.0104259604   -3.5231716814
C       -1.8070255611    0.4080950493   -4.0479822120
C       -0.9047700170    0.3532120452    0.9022397367
C        0.4946275368    0.2099298745    0.7862792786
C       -0.5117367025    1.3667600996    3.0745250509
C       -1.3714287045    0.9490346966    2.0568756351
C       -0.0585030631    0.8680398663   -2.5914882012
C       -2.2227232903    1.5929795491   -3.4881533020
C       -2.5965517985    1.9620136020    3.6333701214
N        0.9914838418   -0.3831544827   -0.4246620680
O        1.7759087945    2.0126697515   -1.1512292589
O        2.3898156496   -0.0886656328   -2.4910331627
O       -1.2471217816    1.8744637172    4.1222692556
O       -2.6773786513    1.1778482285    2.4306549150
S       -1.1013645129    2.2352539123   -2.3262646668
S        1.4477203891    0.6898698019   -1.6839606913
Cl      -3.6809707678    2.4445349249   -3.8550048729
H        2.4312153600    0.5506546879    1.6559124391
H        1.5204966497    1.5455645104    3.7757217934
H       -0.0234301108   -0.9112456296   -3.8173246227
H       -2.3730280767   -0.1268944230   -4.8019945235
H       -1.5672026446   -0.0044405851    0.1220119194
H       -3.2790975939    1.5505595823    4.3796977703
H       -2.8307837245    3.0093081510    3.4006148545
H        1.7886450103   -1.0052654353   -0.2858456990
27   
torsion grid (-75,)
C        0.3691356840    2.2052005933    0.9598156943
C        0.1889418313    2.7615685028    2.2406894966
C        3.4816044598    0.1159608077   -1.8965703336
C        4.7203465577    0.6856253597   -1.4809958378
C       -0.8778127417    0.1859499676    1.5800103806
C       -0.1603847595    0.9506158254    0.6343795188
C       -0.4969003528    1.9949868962    3.1632043921
C       -1.0098834736    0.7365663486    2.8379838708
C        2.6831313041   -0.2291655478   -0.8334142871
C        4.8160809450    0.7539425935   -0.1120858737
C       -1.3752680203    1.0981844052    5.0164963514
N        0.0108383215    0.4279146591   -0.6845761500
O        0.8348952226   -1.8107799557    0.1657135282
O        0.8499677062   -1.2618321052   -2.3469508039
O       -0.8251238897    2.3071151936    4.4637862430
O       -1.6806454190    0.2179083197    3.9228737340
S        3.4165155180    0.1237740521    0.7060769249
S        1.0418811668   -0.8920853264   -0.9474173898
Cl       6.1510696782    1.3707095362    0.7957563596
H        0.9350872996    2.7566750990    0.2138741163
H        0.5823025246    3.7399266455    2.4961308033
H        3.1865782960   -0.0523603998   -2.9264327549
H        5.5047275677    1.0181434782   -2.1513133672
H       -1.2890322505   -0.7821108107    1.3220846317
H       -0.6278908247    0.6245205475    5.6670000031
H       -2.2931276489    1.3337649348    5.5587076260
H        0.1247211001    1.1211651095   -1.4205082646
27   
torsion grid (-60,)
C        0.8251350909    1.1146513052    1.6725032247
C        0.5201702138    1.7960215587    2.8663028537
C        2.6116831265   -2.7432182189    0.7003583622
C        3.3112561822   -3.0409318228    1.9055843327
C       -1.5177749566    0.4637591558    1.3582802925
C       -0.1719079226    0.4701589319    0.9315143447
C       -0.7960582225    1.7635315823    3.2855721259
C       -1.7857591659    1.1075125236    2.5493730921
C        1.2964933236   -2.4174763153    0.9270576855
C        2.4984401328   -2.9252975504    3.0079459308
C       -2.7105879753    1.8667810245    4.4417510386
N        0.1664542839   -0.2039175315   -0.2849891376
O       -1.1996720434   -2.2998604455    0.1559338554
O        0.6774978407   -2.2786394413   -1.6041055922
O       -1.3589625221    2.3572812347    4.3934066964
O       -3.0045138001    1.2692375646    3.1682138225
S        0.8699783047   -2.4636723282    2.6136252767
S        0.1272287253   -1.9048538880   -0.3037463594
Cl       2.9519768131   -3.2035326372    4.6522999768
H        1.8554220396    1.0789574456    1.3283443387
H        1.2854148197    2.3096273144    3.4387948028
H        3.0415338214   -2.7830039358   -0.2946895672
H        4.3528938812   -3.3361203478    1.9604043879
H       -2.2852232640   -0.0351678471    0.7793133623
H       -2.7915389316    1.1045707745    5.2281149007
H       -3.3921762782    2.7018460372    4.6154661689
H        1.0363161991    0.1115433042   -0.7104333065
27   
torsion grid (-45,)
C        0.8951719534    1.0815264351    1.4340468013
C        0.6862662432    1.7072298422    2.6780812384
C        2.5324186202   -2.4996144109    0.9064733836
C        3.0774596220   -2.7402668802    2.2004357682
C       -1.4505165978    0.3770925970    1.3126129617
C       -0.1506306152    0.4374824246    0.7646134319
C       -0.5838223893    1.6211254521    3.2157089481
C       -1.6227480220    0.9677663865    2.5482424842
C        1.1691550496   -2.3318500265    0.9355701682
C        2.1018131091   -2.7425261388    3.1687145089
C       -2.3818008094    1.6234615976    4.5499942140
N        0.0821039426   -0.2154341472   -0.4883664167
O       -1.1932601100   -2.3990575475   -0.1519875101
O        0.8745307784   -2.2903927752   -1.6775112304
O       -1.0539057769    2.1541871712    4.3954582202
O       -2.7802318635    1.0681819416    3.2851324320
S        0.5070319531   -2.4660913442    2.5377185165
S        0.1522127473   -1.9255426216   -0.4602643360
Cl       2.3363574629   -3.0008726849    4.8613043968
H        1.8900331006    1.0852514277    0.9968083123
H        1.4888577179    2.2190426787    3.1987556347
H        3.1074978516   -2.4669707978   -0.0127007231
H        4.1269693322   -2.9134802829    2.4093586968
H       -2.2536856063   -0.1256432995    0.7865394699
H       -2.3688311045    0.8284449633    5.3073554568
H       -3.0647106870    2.4307640563    4.8217828622
H        0.9173596008    0.1189670616   -0.9673370810
27   
torsion grid (-30,)
C        0.9008546109    1.0324541645    1.2531980360
C        0.7814703240    1.6335015453    2.5208137459
C        2.4515702433   -2.3151587178    1.0507387266
C        2.8703146548   -2.5481489414    2.3916762896
C       -1.4387546363    0.3017519834    1.3029590580
C       -0.1859928182    0.3854067402    0.6571292113
C       -0.4424583347    1.5229962568    3.1536201546
C       -1.5240377645    0.8701273098    2.5578313393
C        1.0836100057   -2.2928946641    0.9247565789
C        1.7973451267   -2.6923854173    3.2386244984
C       -2.1309814225    1.4839030221    4.6248130485
N       -0.0581290204   -0.2646437923   -0.6135470879
O       -1.1059336884   -2.5965878782   -0.4260411814
O        1.0853081044   -2.2336935307   -1.7175084276
O       -0.8218672326    2.0265575977    4.3773675528
O       -2.6193627548    0.9387323992    3.3869947499
S        0.2639612260   -2.5644549097    2.4330846046
S        0.2029623914   -1.9680372946   -0.5808408527
Cl       1.8641424768   -2.9887994905    4.9398255172
H        1.8587861908    1.0554215591    0.7409756331
H        1.6160984305    2.1454067427    2.9883256005
H        3.1198416167   -2.1829235227    0.2065995353
H        3.9019461174   -2.6152674146    2.7175941809
H       -2.2732289193   -0.2028817827    0.8287078963
H       -2.0560414857    0.6813016310    5.3701913048
H       -2.7971706755    2.2831651124    4.9558354179
H        0.6994929571    0.1260968290   -1.1736670883
27   
torsion grid (-15,)
C        0.8193524970    1.2968842365    0.9331934199
C        0.7600829914    1.9549392250    2.1774224123
C        2.1719041426   -1.9688232185    1.3792138379
C        2.3450472583   -2.3246679046    2.7459677730
C       -1.2364953828    0.0552237270    1.4155716659
C       -0.1581581986    0.3687654730    0.5591738918
C       -0.2770787927    1.6083904248    3.0216052079
C       -1.2483922252    0.6771343316    2.6470437319
C        0.9440145987   -2.3451207407    0.8921070352
C        1.2319113234   -2.9569334232    3.2485224307
C       -1.6499872882    1.2913538725    4.7636571712
N       -0.0856177764   -0.3016079189   -0.6987170399
O       -0.9487635071   -2.7399978387   -0.8086955131
O        1.3537813409   -2.1094898289   -1.7327295112
O       -0.5679409847    2.1022417862    4.2748968607
O       -2.1799601184    0.5499870845    3.6502241388
S       -0.0393280540   -3.1464337762    2.0814741537
S        0.3028974900   -1.9915452517   -0.7195997289
Cl       1.0359051821   -3.5581944208    4.8566881643
H        1.6444977817    1.5087364377    0.2580290498
H        1.5052810908    2.6884725055    2.4671168110
H        2.9169459073   -1.4599270617    0.7775088378
H        3.2380571951   -2.1321050781    3.3293988806
H       -2.0078207844   -0.6429266810    1.1091273695
H       -1.2677078346    0.5892204741    5.5161044074
H       -2.4306262063    1.9367946887    5.1716125139
H        0.5873398290    0.1367371982   -1.3267318270
27   
torsion grid (0,)
C        0.9819726754    0.7009760482    1.3174234881
C        0.9733486228    1.4984806196    2.4786856417
C       -0.3340092402    2.8018709447   -1.0426473117
C       -1.0077138564    3.9441017183   -0.5286835423
C       -1.4402689134    0.3644211978    1.4432628139
C       -0.1987036671    0.1507064451    0.8056400189
C       -0.2570918448    1.7468581831    3.0560578936
C       -1.4338805131    1.1913515059    2.5472264128
C       -1.2013438436    1.7897475140   -1.3749573176
C       -2.3690729046    3.7516050727   -0.4854862511
C       -1.9798998896    2.5531746231    4.2369222131
N       -0.1911176488   -0.6137998424   -0.4004490079
O        0.4203151877    0.1868588766   -2.7494065306
O       -1.9944179719   -0.5002415751   -2.2786842374
O       -0.5446158087    2.4823975108    4.1854003013
O       -2.4982548576    1.5580528243    3.3369134840
S       -2.8666734776    2.1989420891   -1.0807696548
S       -0.7536841608    0.1537659623   -1.8711571761
Cl      -3.5444122600    4.8943499633    0.0598896629
H        1.9212379100    0.5278905353    0.7984815203
H        1.8872754894    1.9161201152    2.8883189145
H        0.7412423696    2.7193940419   -1.1519080260
H       -0.5221621011    4.8588857908   -0.2087892266
H       -2.3471996430   -0.0963617939    1.0686379893
H       -2.3172176931    2.3333345297    5.2515935258
H       -2.3076080516    3.5468794081    3.9037400704
H        0.7503855971   -0.9315270473   -0.6323393459
27   
torsion grid (15,)
C        0.9408212944    0.8196012084    1.3417106311
C        0.8874039024    1.5651531524    2.5358363045
C       -0.3059635944    2.7951305377   -1.3475644391
C       -0.8730185366    4.0296431121   -0.9244061112
C       -1.4434542209    0.2781452513    1.4933008781
C       -0.1987458892    0.1882487468    0.8321737555
C       -0.3449224491    1.6788104703    3.1497443786
C       -1.4819432969    1.0514708990    2.6351991374
C       -1.2371550748    1.7877585523   -1.4157176299
C       -2.2212027204    3.9094145963   -0.6808322290
C       -2.1005460334    2.2726993315    4.4077374271
N       -0.1389570039   -0.5563124067   -0.3839708961
O        0.0919032887   -0.0271084910   -2.8487887082
O       -2.2330391709   -0.5358200822   -1.9061003648
O       -0.6669070337    2.3343504931    4.3185352149
O       -2.5567359052    1.2928318935    3.4580741002
S       -2.8341572182    2.3109083291   -0.9689876260
S       -0.9167172341    0.0881838595   -1.7933009260
Cl      -3.2831778675    5.1700624003   -0.1620558500
H        1.8824485312    0.7428598563    0.8040878922
H        1.7708932478    2.0431981778    2.9460036290
H        0.7405084158    2.6517710240   -1.5934365959
H       -0.3246363493    4.9574062176   -0.8083376671
H       -2.3173831190   -0.2374701061    1.1103466264
H       -2.3878010767    1.9609869349    5.4139839410
H       -2.5239157665    3.2518951869    4.1480907061
H        0.8213621279   -0.7453900096   -0.6693309641
27   
torsion grid (30,)
C        0.7506419642    1.2025542053    1.3129346005
C        0.6088405050    1.9442134998    2.5012893883
C       -0.1846447052    2.8215166193   -1.8737542051
C       -0.4950714199    4.1513845263   -1.4702320575
C       -1.3643653872    0.0287886316    1.7119329635
C       -0.2123228746    0.2637167206    0.9301870048
C       -0.5353079083    1.7233471508    3.2447998831
C       -1.4983079061    0.7893506028    2.8558811109
C       -1.0873300244    1.9035534124   -1.3939731721
C       -1.6275813398    4.1924255680   -0.6923341829
C       -2.2474899218    1.8451988710    4.6838496647
N       -0.0943544099   -0.4627694906   -0.2993647606
O       -0.1454447850   -0.1221269437   -2.8062815249
O       -2.3513793638   -0.3546971328   -1.5098009159
O       -0.9053682462    2.3011460957    4.4382249999
O       -2.5074971900    0.7494399905    3.7896283922
S       -2.3478442698    2.6315704866   -0.4443923581
S       -0.9871861509    0.1494022721   -1.6405833469
Cl      -2.3477453785    5.6025999295   -0.0001064554
H        1.6122147799    1.3786224146    0.6747924766
H        1.3543409142    2.6688376360    2.8117170024
H        0.6554989896    2.5441404714   -2.5013408600
H        0.0752506398    5.0322065617   -1.7420313683
H       -2.1029239428   -0.7026843808    1.4030834875
H       -2.3280620029    1.4970039173    5.7155873362
H       -2.9518954888    2.6605047984    4.4730131381
H        0.8730127721   -0.5360155074   -0.6143754708
27   
torsion grid (45,)
C        1.2405384272   -0.0978838555    1.8159742074
C        1.2168616848    0.6970798676    2.9778266958
C        3.0410666018    0.8587225940   -1.5884509877
C        3.8356353583    1.9657804658   -1.1732186211
C       -1.0251061070    0.6077658049    1.1981785201
C        0.1425497611   -0.1462547223    0.9505227300
C        0.0781367467    1.4487838855    3.1971291740
C       -1.0119782035    1.4056958375    2.3245112520
C        1.6981347238    1.0788246368   -1.3998895171
C        3.0614415935    2.9882025530   -0.6784696627
C       -1.4381498187    2.9393008565    3.8993741896
N        0.1908928759   -0.9390215632   -0.2409616698
O        0.9169531566   -1.1011924674   -2.6471372056
O       -0.8118000072    0.6695277594   -1.9467723185
O       -0.2061682586    2.2863793869    4.2527076885
O       -2.0178845349    2.2139566733    2.8017917272
S        1.3597905970    2.6402210350   -0.7139316872
S        0.4077676761   -0.0975092328   -1.7145768941
Cl       3.6279275793    4.5055449028   -0.0757355708
H        2.1342126953   -0.6693825562    1.5801720477
H        2.0594374172    0.7316448313    3.6605461789
H        3.4297836631   -0.0554234439   -2.0242569688
H        4.9162908041    2.0149069962   -1.2432298566
H       -1.8696135145    0.5646329090    0.5202910821
H       -2.1198590702    2.9111837755    4.7517333568
H       -1.2251015728    3.9686702884    3.5819257192
H        0.8867630757   -1.6827206120   -0.2039399888
27   
torsion grid (60,)
C        1.2064245850    0.0962443257    1.9761693424
C        1.0746360734    0.8412703201    3.1635582241
C        3.0902547410    0.7918500098   -1.9048043977
C        4.0237438584    1.8198430463   -1.5847475274
C       -1.0898779520    0.6246342302    1.2966915775
C        0.1472059595   -0.0162389286    1.0682742299
C       -0.1326957982    1.4823230934    3.3649544604
C       -1.1829147848    1.3781802676    2.4492334002
C        1.8191907485    1.0887730994   -1.4763766274
C        3.4247976043    2.8626454692   -0.9192091314
C       -1.7992140381    2.8062749241    4.0599275509
N        0.3087639232   -0.7912935539   -0.1236476004
O        0.7347497546   -1.0072653662   -2.5896296831
O       -0.7775455549    0.8765283837   -1.7031151031
O       -0.5274545223    2.2501813205    4.4379698040
O       -2.2737046850    2.0748585242    2.9174589226
S        1.7202583818    2.6291383035   -0.6728177049
S        0.4050625105    0.0275257889   -1.6127589336
Cl       4.1977258184    4.3033192866   -0.3587575416
H        2.1531816031   -0.3900168363    1.7562307778
H        1.8867975645    0.9211686267    3.8785574717
H        3.3283488849   -0.1196995454   -2.4422019167
H        5.0771621946    1.8012664752   -1.8398847630
H       -1.9068766949    0.5322225751    0.5915277320
H       -2.5051800392    2.6873718432    4.8842734719
H       -1.6664060255    3.8614513968    3.7863526573
H        1.0573007776   -1.4802698262   -0.0766351339
27   
torsion grid (75,)
C        1.2856156845    0.3037770071    2.0479217064
C        1.0484142975    0.9744324213    3.2630842123
C        3.1964463642    0.7236993429   -2.2398817261
C        4.2711358900    1.6330713861   -2.0167648949
C       -1.0557911820    0.5598074413    1.3636161808
C        0.2550261700    0.0929472560    1.1239483289
C       -0.2332286428    1.4443522994    3.4766523513
C       -1.2547395654    1.2450844155    2.5442639334
C        2.0456413033    1.1076929695   -1.5955389911
C        3.8955584941    2.6770652889   -1.2063556395
C       -2.0598925284    2.5155745590    4.2017165003
N        0.5202391469   -0.6207372496   -0.0853755923
O        0.6566169154   -0.8434009978   -2.5862741659
O       -0.5830310827    1.1454334939   -1.5266453847
O       -0.7322604927    2.1069983451    4.5760108963
O       -2.4304586524    1.7730719981    3.0289015915
S        2.2333078231    2.5903446925   -0.7017098477
S        0.5236467264    0.1971653337   -1.5704985245
Cl       4.8925640084    3.9936477873   -0.6970648405
H        2.2878074906   -0.0497437885    1.8210264467
H        1.8378434683    1.1278462809    3.9913921277
H        3.2502030801   -0.1664550767   -2.8569090733
H        5.2650417776    1.5321282216   -2.4376019903
H       -1.8505702949    0.3905212480    0.6477783120
H       -2.7522890981    2.2808686751    5.0125275112
H       -2.0559523687    3.5884075303    3.9669144716
H        1.2886720746   -1.2862427549   -0.0433248436
27   
torsion grid (90,)
C        0.9914850048    0.6410436671    1.5205189429
C        0.6017649656    1.0955045173    2.7946291169
C       -2.2579534440   -2.5080937654   -0.9878361324
C       -3.4882919171   -2.5082193912   -1.7079007907
C       -1.3228934197    0.6950564880    0.7183593563
C        0.0516131802    0.4552785846    0.5032373402
C       -0.7489992130    1.3080477158    2.9980079543
C       -1.6880737914    1.1056577213    1.9846901654
C       -1.2449286749   -1.9008594298   -1.6866773100
C       -3.3603374354   -1.8951931459   -2.9303570253
C       -2.7887705315    1.6343229226    3.8608932378
N        0.4438021325    0.0057740042   -0.8022807551
O        1.3484827978   -1.8781116669   -2.1930855598
O        0.4981270969   -2.4411684098    0.1579125933
O       -1.3834818225    1.7681925629    4.1311148211
O       -2.9447176404    1.4318147983    2.4454585177
S       -1.7509332802   -1.3108522263   -3.2421183836
S        0.4047821998   -1.6846399338   -1.0900677313
Cl      -4.6026230473   -1.6926984822   -4.1134175720
H        2.0363269359    0.4138500131    1.3300176666
H        1.3254607255    1.2563286183    3.5868573093
H       -2.1109955205   -2.9285670190    0.0006912408
H       -4.4165921199   -2.9380929151   -1.3496348306
H       -2.0432814513    0.5706388122   -0.0824551366
H       -3.1799290803    0.7596700722    4.3977071331
H       -3.3028203299    2.5520684979    4.1533561296
H        1.3713219878    0.3210031287   -1.0881434184
27   
torsion grid (105,)
C        0.9874734147    0.8338574377    1.4503960489
C        0.7102028908    1.3678803069    2.7238005984
C       -2.4605888313   -2.5320131180   -1.2258103314
C       -3.5432146629   -2.5870870118   -2.1524191280
C       -1.3995624228    0.5825688414    0.9615562167
C       -0.0445318744    0.4588629242    0.5866285512
C       -0.6194955586    1.4622897084    3.0877375205
C       -1.6481695772    1.0718283807    2.2276370160
C       -1.3198322977   -2.0163433131   -1.7874990362
C       -3.1794622937   -2.1075849029   -3.3866341838
C       -2.5606576577    1.6614966986    4.1847801447
N        0.2363042754   -0.0594279499   -0.7205833628
O        1.3029743697   -2.0313972139   -1.8656963745
O        0.0805823043   -2.4341072731    0.3607909112
O       -1.1571247622    1.9621128293    4.2542941417
O       -2.8664239346    1.3125204494    2.8231453387
S       -1.5202036219   -1.5874091760   -3.4603455617
S        0.2070551234   -1.7631617341   -0.9304908496
Cl      -4.1826757895   -2.0119754933   -4.7897440497
H        2.0201760029    0.6990487841    1.1411088109
H        1.5044056427    1.6758153765    3.3958482609
H       -2.5051596402   -2.8579198578   -0.1924744991
H       -4.5337213201   -2.9652462876   -1.9269352702
H       -2.1958489045    0.3135793164    0.2759602461
H       -2.7819013441    0.8057078483    4.8365056532
H       -3.1348651677    2.5457877347    4.4683369240
H        1.1296464894    0.2548294246   -1.0989142161
27   
torsion grid (120,)
C        0.6211085538    2.1031749813    1.2832255234
C        0.1066581873    2.5404412328    2.5190671472
C        1.4132245779   -2.2547911005   -2.8451631393
C        0.6913098621   -3.4050424728   -3.2820210232
C       -0.7974121085    0.1057154162    1.3235630088
C        0.1714893755    0.9169803000    0.6964771758
C       -0.8251851306    1.7260984416    3.1339699069
C       -1.2604919700    0.5340837072    2.5506213384
C        1.2416416036   -2.0088893743   -1.5075255604
C       -0.0079776259   -3.9877322342   -2.2546902357
C       -2.1941723551    0.7009981831    4.5768519394
N        0.6741901813    0.4950418654   -0.5799311590
O        2.9885093324   -0.0858354446   -1.4700576412
O        2.1915039286   -1.1112124882    0.7558110338
O       -1.4922388452    1.9294411854    4.3225896464
O       -2.2166523189   -0.0505920054    3.3511323934
S        0.2062644178   -3.1722098077   -0.7315873987
S        1.9474811826   -0.6562112512   -0.6100202621
Cl      -0.9960915674   -5.4014050279   -2.3526900302
H        1.3883169321    2.6895815118    0.7852100339
H        0.4382307210    3.4667919329    2.9763903752
H        2.0414849556   -1.6367184480   -3.4768444557
H        0.6907880005   -3.7876845273   -4.2962265646
H       -1.1604180175   -0.8013702281    0.8530361762
H       -1.6565851324    0.1276265041    5.3438918584
H       -3.2181438086    0.9256834998    4.8815428422
H        0.9640614036    1.2674607870   -1.1780914923
27   
torsion grid (135,)
C        0.4674675175    2.0787936760    1.1598523471
C        0.0105000027    2.6426767444    2.3670731578
C        1.6333818688   -2.3261628058   -2.8550009284
C        0.9683374520   -3.4210846467   -3.4826413358
C       -0.8254998249    0.0342948187    1.5435836344
C        0.0509657156    0.8076162339    0.7539643440
C       -0.8319060224    1.8671557243    3.1401530665
C       -1.2331618713    0.5909773819    2.7379548082
C        1.2040494732   -2.1236574619   -1.5683924604
C        0.0541344057   -4.0089432317   -2.6442558614
C       -2.0398863685    0.9617588640    4.7913967931
N        0.4874000097    0.2622632201   -0.5012915451
O        2.9345859350   -0.2356645602   -1.1519930420
O        1.8627416276   -1.4079042198    0.8701285205
O       -1.4314372035    2.1836089564    4.3401463644
O       -2.0993506335    0.0637949789    3.6702425259
S       -0.0150529887   -3.2613742892   -1.0737412749
S        1.7895366298   -0.8571880984   -0.4797016419
Cl      -0.9504739755   -5.3669750654   -3.0051493888
H        1.1644963791    2.6363145634    0.5402850626
H        0.3173934427    3.6342225734    2.6830995749
H        2.4014874286   -1.7155138575   -3.3164141088
H        1.1559300636   -3.7623117508   -4.4942437423
H       -1.1546239324   -0.9468336434    1.2207664266
H       -1.4187343024    0.5165797457    5.5801956701
H       -3.0527308707    1.1699144726    5.1416047406
H        0.7177090148    0.9798977207   -1.1873190100
27   
torsion grid (150,)
C        0.3050922128    2.0008121916    1.1036047349
C       -0.0903423672    2.6621764108    2.2828686818
C        1.8422496237   -2.3519354847   -2.7881845355
C        1.2591483407   -3.3613442027   -3.6094699716
C       -0.8634836681   -0.0456618658    1.7745593658
C       -0.0819193689    0.6811318904    0.8520475055
C       -0.8413115083    1.9342917369    3.1855187833
C       -1.2111286288    0.6101558412    2.9369879863
C        1.1596700231   -2.1781610930   -1.6104472034
C        0.1517207794   -3.9186960683   -3.0193875270
C       -1.8844129360    1.1474687367    5.0013018611
N        0.2834621214    0.0365908942   -0.3806746512
O        2.8338410979   -0.3693431217   -0.7950661859
O        1.5529698703   -1.7187770428    0.9624386565
O       -1.3688567914    2.3430052539    4.3913234081
O       -1.9842344835    0.1436892827    3.9775333301
S       -0.2095671160   -3.2400413668   -1.4583578487
S        1.6179023275   -1.0449554207   -0.3310320274
Cl      -0.8423630707   -5.1701705487   -3.6742274401
H        0.9305680290    2.5215739091    0.3837845460
H        0.1930634737    3.6908227207    2.4797031112
H        2.7282312781   -1.7785949419   -3.0374970086
H        1.6343083772   -3.6639220890   -4.5803331202
H       -1.1611627024   -1.0681462270    1.5745570114
H       -1.1863397068    0.8062096786    5.7775871268
H       -2.8771512749    1.3485282652    5.4085021460
H        0.4591107157    0.7057372816   -1.1300823700
27   
torsion grid (165,)
C        0.1440613616    1.8908903278    1.0294500281
C       -0.1559100849    2.6408755447    2.1834080635
C        1.8512961683   -2.2698775842   -2.7716441779
C        1.3726882487   -3.1966531250   -3.7430612166
C       -0.9788050835   -0.0901219965    1.9387551974
C       -0.2680684047    0.5604791741    0.9081565304
C       -0.8399924353    1.9892461648    3.1916857529
C       -1.2347188222    0.6544678233    3.0713755011
C        1.0476905028   -2.2170089056   -1.6595852380
C        0.2193044776   -3.8165942642   -3.3281120334
C       -1.7488873950    1.3512523263    5.1341788444
N        0.0015903211   -0.1838705005   -0.2954051100
O        2.6108566598   -0.4957109868   -0.4989626035
O        1.2088416504   -2.0265033323    0.9834456526
O       -1.2711765963    2.4918058735    4.4001010849
O       -1.9289414960    0.2750050734    4.1992755627
S       -0.3125509595   -3.2970735291   -1.7555443271
S        1.3689281896   -1.2279003511   -0.2286018561
Cl      -0.6830266566   -5.0004823850   -4.2040412164
H        0.7168009419    2.3498297809    0.2283403284
H        0.1475354074    3.6778840662    2.2818277062
H        2.7503752588   -1.6713905657   -2.8687002768
H        1.8504104457   -3.3993780814   -4.6946562419
H       -1.2919371853   -1.1222474474    1.8365346664
H       -0.9986425507    1.0613638812    5.8821130366
H       -2.7082314119    1.5941271543    5.5952124979
H        0.1360754683    0.4356608143   -1.0957287985
27   
torsion grid (180,)
C       -0.0021027797    1.7602779723    0.9111664864
C       -0.2272935205    2.6065451634    2.0142775122
C        1.9080251031   -2.2005410398   -2.6952022179
C        1.5390358128   -2.9962981372   -3.8180231542
C       -1.0038351044   -0.1477068799    2.0824462515
C       -0.3925159191    0.4183626275    0.9428419029
C       -0.8131898070    2.0389398132    3.1294608491
C       -1.1846596889    0.6926375795    3.1616316390
C        0.9949481962   -2.2854501761   -1.6726352613
C        0.3567781423   -3.6623981897   -3.6021020158
C       -1.5517180487    1.5667355692    5.1881643297
N       -0.2013007734   -0.4282261795   -0.2067308359
O        2.4250671386   -0.7373653501   -0.1514615171
O        0.8788168454   -2.4053439894    0.9885236847
O       -1.1591677001    2.6429223713    4.3187661390
O       -1.7773740596    0.4061649064    4.3715527860
S       -0.3349893423   -3.3459626845   -2.0382264631
S        1.1611878301   -1.4801992408   -0.1059355310
Cl      -0.4407989589   -4.7219227412   -4.7082723359
H        0.4955533148    2.1541555213    0.0292883887
H        0.0590200803    3.6528554870    1.9947430820
H        2.8061922681   -1.5969624943   -2.6243729024
H        2.1118231728   -3.0784016813   -4.7345563565
H       -1.3014344067   -1.1893900207    2.0966152723
H       -0.7396395968    1.3593270455    5.8979479554
H       -2.4783308314    1.8348375985    5.6994960210
H       -0.0794597731    0.1303210745   -1.0530971955
