27   
torsion grid (-165,)
C        0.9187714880    0.1148551744   -1.1393966309
C       -2.9888958743   -1.9107684508    2.5110336003
C       -2.7408791649   -1.4458505044    1.2821802248
C        0.6519477063    1.2377912201   -0.1659315500
C       -0.3457482196    0.5737213283    0.8111809554
C        2.0138164093    0.1119366522   -2.1573794497
C        0.4103289262   -0.0101002615    2.0187502798
C       -1.4364557736    1.5439862650    1.2721889717
C       -1.4795493462   -1.7130820733    0.5082678042
N        0.0465491209   -0.8262187890   -1.0547946595
N       -0.9092991097   -0.4994129667   -0.0799896167
H       -3.9372648387   -1.7275554559    3.0099168220
H       -2.2510996983   -2.4966596925    3.0571681698
H       -3.4954915746   -0.8553550735    0.7620458787
H        1.5530457783    1.6103054597    0.3319118392
H        0.1926207860    2.0864616523   -0.6924907980
H        2.9970601791    0.1933566307   -1.6775291857
H        1.9197717890    0.9691541311   -2.8369019772
H        1.9827281543   -0.8066001342   -2.7477701630
H       -0.2673951405   -0.5233619908    2.7059541310
H        0.8980414490    0.7979634503    2.5743603617
H        1.1834022824   -0.7162799363    1.6979936105
H       -2.1277913095    1.0665109222    1.9707308630
H       -2.0079622718    1.9079975239    0.4134250080
H       -0.9848467787    2.4037200659    1.7803470870
H       -1.7135530191   -2.3609461603   -0.3431659948
H       -0.7605972943   -2.2619609833    1.1356672766
27   
torsion grid (-150,)
C        0.8926581981    0.1354751369   -1.1526697346
C       -3.1963960260   -1.8721567064    2.4054728768
C       -2.7819709617   -1.4898626886    1.1929653091
C        0.6593244905    1.2564070375   -0.1665941892
C       -0.2701154211    0.5794072234    0.8690629762
C        1.9109160484    0.1639393803   -2.2469960868
C        0.5568750180    0.0455615936    2.0532491219
C       -1.3765943808    1.5154932242    1.3626372912
C       -1.3982845236   -1.7247604946    0.6490274008
N        0.0553665335   -0.8306944388   -1.0064535002
N       -0.8329437351   -0.5288676135    0.0305991489
H       -4.2201168824   -1.7138657969    2.7353226422
H       -2.5240696820   -2.3633767865    3.1075139697
H       -3.4698876148   -0.9872616714    0.5128740413
H        1.5805467501    1.6465432626    0.2782314058
H        0.1569413647    2.0959062981   -0.6678883995
H        2.9241263627    0.2725846937   -1.8402135096
H        1.7443679929    1.0177722981   -2.9170183409
H        1.8631963334   -0.7552730748   -2.8353175600
H       -0.0737244578   -0.4646925709    2.7870466372
H        1.0510281952    0.8782595388    2.5648427363
H        1.3290057227   -0.6524930483    1.7127696441
H       -2.0336799160    1.0128905025    2.0770073113
H       -1.9845177952    1.8612402427    0.5215730400
H       -0.9392276342    2.3889461037    1.8596817862
H       -1.4587093948   -2.4593309229   -0.1605837556
H       -0.7514052012   -2.1621097523    1.4239484475
27   
torsion grid (-135,)
C        0.8558741190    0.1206361281   -1.1858886458
C       -3.4354533098   -1.8511072278    2.1703312051
C       -2.8387005940   -1.5729626318    1.0065719099
C        0.6206486276    1.2532941124   -0.2111789760
C       -0.2076615268    0.5498045108    0.8896300434
C        1.8182674937    0.1644030053   -2.3287629869
C        0.7272704958    0.0491714569    2.0084364834
C       -1.3141079030    1.4356818920    1.4657733126
C       -1.3666855735   -1.7498733646    0.7337593612
N        0.0627428986   -0.8730671377   -0.9800541880
N       -0.7777846744   -0.5790318686    0.0935471635
H       -4.5080488787   -1.7355950252    2.3048412083
H       -2.8685101882   -2.2095738384    3.0286264818
H       -3.4234102746   -1.2005419377    0.1654793469
H        1.5418191572    1.7045686339    0.1705425065
H        0.0411978500    2.0497259637   -0.7001806257
H        2.8457822641    0.3164036207   -1.9750725395
H        1.5885635652    0.9985207915   -3.0051043134
H        1.7756735293   -0.7671763852   -2.8978581424
H        0.1751196486   -0.4725247023    2.7955790206
H        1.2378215422    0.8985910068    2.4743973583
H        1.4872244427   -0.6305785825    1.6090202105
H       -1.9112211120    0.8942756530    2.2047577739
H       -1.9845500266    1.7740703197    0.6705835806
H       -0.8805044066    2.3143857354    1.9564740228
H       -1.2357698756   -2.5685231640    0.0191124959
H       -0.8432814077   -2.0460416151    1.6533150811
27   
torsion grid (-120,)
C        0.8142861866    0.1241054247   -1.1662611163
C       -3.6056283827   -1.7968941559    1.9721706096
C       -2.8408841812   -1.6554357457    0.8846586716
C        0.5956385602    1.2710767840   -0.2019826864
C       -0.1411632371    0.5599275972    0.9564134328
C        1.7218460008    0.1649432751   -2.3529430326
C        0.8830897983    0.0828257000    2.0066907415
C       -1.2304115499    1.4136889547    1.6063306577
C       -1.3334997662   -1.7275550265    0.8794830784
N        0.0546141135   -0.8831192722   -0.9021377314
N       -0.7348664527   -0.5815861865    0.2040794905
H       -4.6906723980   -1.7538517486    1.9187111022
H       -3.1690824533   -1.9641306387    2.9562299970
H       -3.2982168805   -1.4745476388   -0.0879112925
H        1.5198181906    1.7626309929    0.1168177476
H       -0.0416627777    2.0342564209   -0.6721415602
H        2.7608297305    0.3480958047   -2.0513133023
H        1.4412747008    0.9784185803   -3.0353600951
H        1.6753465132   -0.7796202001   -2.9000069060
H        0.4037191413   -0.4604770172    2.8262872991
H        1.3996337401    0.9442798429    2.4433163966
H        1.6324699701   -0.5716690246    1.5497008707
H       -1.7738396661    0.8463611660    2.3682012278
H       -1.9535430745    1.7468744281    0.8567016363
H       -0.7908281328    2.2935045239    2.0891549269
H       -1.0147837418   -2.6189773515    0.3293578463
H       -0.9630018683   -1.8365804354    1.9059884032
27   
torsion grid (-105,)
C        0.7477854034    0.1277367298   -1.1621590318
C       -3.7322152913   -1.8687499822    1.7309494214
C       -2.8135129219   -1.7808018874    0.7637247666
C        0.6018765448    1.2856519970   -0.1968207355
C       -0.0877831251    0.5939392443    1.0011456583
C        1.6056732077    0.1361625778   -2.3857824454
C        0.9821884793    0.0841331403    1.9889218416
C       -1.1176943860    1.4715406420    1.7118282497
C       -1.3279725240   -1.6633393790    1.0003298943
N       -0.0235929450   -0.8581823552   -0.8555635083
N       -0.7584530087   -0.5256754703    0.2801841537
H       -4.7922079550   -1.9610454575    1.5071519709
H       -3.4532051788   -1.8523004301    2.7839377725
H       -3.1174069239   -1.7882171404   -0.2827577936
H        1.5507894394    1.7604416033    0.0702776992
H       -0.0450343147    2.0575677287   -0.6385671044
H        2.6605400382    0.2951416934   -2.1290226528
H        1.3173269840    0.9514500806   -3.0626834222
H        1.5122559551   -0.8109691453   -2.9222352705
H        0.5371877581   -0.4574875128    2.8288174112
H        1.5431201195    0.9286181681    2.4036306641
H        1.6891645568   -0.5827265778    1.4848256459
H       -1.6386539851    0.9105222759    2.4948990758
H       -1.8672444296    1.8322502837    1.0021737129
H       -0.6318152834    2.3325306659    2.1837641124
H       -0.8217837873   -2.5771547679    0.6669517241
H       -1.1397166208   -1.5640032000    2.0736793524
27   
torsion grid (-90,)
C        1.0517082153    0.1938080317   -1.1145868689
C       -2.3982844016   -3.7401234702   -0.8212819303
C       -2.3447664519   -2.4776107785   -0.3870170359
C        0.5537789255    1.2855081680   -0.1922988174
C       -0.3383736311    0.4728399574    0.7710417878
C        2.1991486598    0.3333994310   -2.0621631571
C        0.4997628739   -0.0036197819    1.9746303269
C       -1.5832320046    1.2291081208    1.2332531635
C       -1.2246924653   -1.9028113270    0.4400224974
N        0.3296283280   -0.8690302824   -1.0456900803
N       -0.7162844422   -0.6569663954   -0.1374623400
H       -3.2413534339   -4.1099705986   -1.3997315570
H       -1.5935415645   -4.4445776100   -0.6179053010
H       -3.1485024526   -1.7808453436   -0.6251254357
H        1.3535415054    1.8303460916    0.3184931951
H       -0.0363597733    2.0161785503   -0.7639967623
H        3.1264005866    0.5732974575   -1.5269607432
H        2.0222182727    1.1506553607   -2.7737111334
H        2.3431503066   -0.5925468554   -2.6235093945
H       -0.0837940962   -0.6320081538    2.6537113147
H        0.8567224906    0.8584387671    2.5483903584
H        1.3710947974   -0.5760665926    1.6407160908
H       -2.2222203128    0.5966918664    1.8594688380
H       -2.1709017005    1.5594465922    0.3720713587
H       -1.3045127193    2.1062649866    1.8273004345
H       -0.4248162691   -2.6400862952    0.5820765806
H       -1.6276846215   -1.6628370728    1.4308889249
27   
torsion grid (-75,)
C        0.9732861611    0.1880801762   -1.1294459943
C       -2.1961153035   -3.8132095673   -0.8230843390
C       -2.2694238444   -2.5162201882   -0.5114760637
C        0.5844492810    1.2747929244   -0.1507252331
C       -0.3406050377    0.4951696039    0.8093118471
C        2.0905003893    0.2906003999   -2.1173004806
C        0.4821921274   -0.0683496825    1.9844912960
C       -1.5228132989    1.3216514406    1.3154068328
C       -1.3506952077   -1.8170766257    0.4543522263
N        0.1858045979   -0.8275704080   -1.0719226688
N       -0.8120487008   -0.5840637465   -0.1176675027
H       -2.9026749506   -4.2752796500   -1.5080998254
H       -1.4194231088   -4.4541817627   -0.4094934685
H       -3.0389544032   -1.8869738055   -0.9582710918
H        1.4376326571    1.7364055031    0.3559654397
H        0.0384615304    2.0715299728   -0.6759355381
H        3.0511673709    0.4486941237   -1.6114681489
H        1.9411058526    1.1452355737   -2.7901889630
H        2.1513772351   -0.6198855870   -2.7176936637
H       -0.1320927332   -0.6806692768    2.6512182922
H        0.8984957340    0.7524212507    2.5783485119
H        1.3128383252   -0.6826562777    1.6223132584
H       -2.1890887526    0.7204639191    1.9437077485
H       -2.1053694556    1.7089961875    0.4748350647
H       -1.1730599098    2.1654572185    1.9201462602
H       -0.5608985206   -2.5025079990    0.7940069541
H       -1.9349895470   -1.5254605082    1.3354351176
27   
torsion grid (-60,)
C        0.9137467139    0.1862186730   -1.1490088043
C       -2.0717350116   -3.8767699572   -0.7744602194
C       -2.1719854163   -2.5523563374   -0.6324428503
C        0.6104852474    1.2522648703   -0.1184802804
C       -0.3413448789    0.4937156701    0.8338287000
C        1.9974179874    0.2779866086   -2.1746548207
C        0.4619034939   -0.1326349427    1.9901734874
C       -1.4784910049    1.3646368787    1.3699601694
C       -1.4701150160   -1.7567841618    0.4349493828
N        0.0789506967   -0.7919170960   -1.1037390775
N       -0.8714230423   -0.5413351522   -0.1085204747
H       -2.6291515742   -4.4093725624   -1.5408280687
H       -1.4212588782   -4.4715385608   -0.1353524048
H       -2.8120298290   -1.9763447639   -1.3001134067
H        1.5005098558    1.6403600180    0.3867793839
H        0.1058301880    2.1024312783   -0.5993500898
H        2.9826342809    0.3704388311   -1.7007203852
H        1.8648196117    1.1652848949   -2.8077589053
H        1.9929869714   -0.6092928441   -2.8117752814
H       -0.1782214375   -0.7224407880    2.6530457748
H        0.9263659737    0.6554747232    2.5923698214
H        1.2555233729   -0.7837916744    1.6095565280
H       -2.1617120760    0.7847213339    1.9998491699
H       -2.0546708129    1.7907772727    0.5439218439
H       -1.0818030576    2.1826700476    1.9811346137
H       -0.7383757094   -2.3998651026    0.9481935595
H       -2.2058057109   -1.4354450637    1.1828711000
27   
torsion grid (-45,)
C        0.8697199434    0.1919289549   -1.1652075115
C       -1.9612381201   -3.9124752462   -0.7109844684
C       -2.0719203197   -2.5813143725   -0.7143289438
C        0.6286082716    1.2354690905   -0.0954693521
C       -0.3383622585    0.4879124251    0.8516879624
C        1.9258946838    0.2821393980   -2.2191745359
C        0.4573756863   -0.1913279850    1.9837519967
C       -1.4377156078    1.3846984059    1.4238849456
C       -1.5944016931   -1.6922425297    0.4018587289
N       -0.0010450855   -0.7555268092   -1.1304003763
N       -0.9129488336   -0.5049568115   -0.1052562272
H       -2.3610156510   -4.5159828565   -1.5218798822
H       -1.4588243300   -4.4426857572    0.0964048027
H       -2.5625682893   -2.0754864296   -1.5447624918
H        1.5420086773    1.5704559915    0.4060778691
H        0.1525378357    2.1209840272   -0.5405865927
H        2.9274310217    0.3238989886   -1.7729785686
H        1.8069352603    1.1945865746   -2.8186140098
H        1.8719218086   -0.5821716653   -2.8850369161
H       -0.1948252990   -0.7622406081    2.6513043747
H        0.9663663748    0.5672335928    2.5877855140
H        1.2146130815   -0.8702255342    1.5781618323
H       -2.1304749020    0.8138712717    2.0515613080
H       -2.0108643424    1.8487462119    0.6162831007
H       -1.0044239938    2.1751128154    2.0463801503
H       -0.9632723704   -2.2888874295    1.0792353565
H       -2.4555551706   -1.3408680116    0.9846953579
27   
torsion grid (-30,)
C        0.8395191967    0.1964175092   -1.1876821585
C       -1.8549545550   -3.9374055685   -0.6208677041
C       -1.9899439638   -2.6162776331   -0.7666183522
C        0.6367628040    1.2168735413   -0.0874839620
C       -0.3387187919    0.4678796232    0.8498766456
C        1.8851960021    0.2852616114   -2.2520441090
C        0.4560446516   -0.2708094996    1.9462380133
C       -1.4040881869    1.3739636421    1.4694583526
C       -1.7300718837   -1.6225263281    0.3323892012
N       -0.0619020651   -0.7233940085   -1.1706870495
N       -0.9500162449   -0.4759095157   -0.1294946079
H       -2.0993331404   -4.6230454213   -1.4282502424
H       -1.4876928911   -4.3773042667    0.3049229697
H       -2.3426251288   -2.2053948527   -1.7107866598
H        1.5621887230    1.5178707032    0.4131327825
H        0.1757311547    2.1241266396   -0.5045633040
H        2.8932257076    0.2831164302   -1.8185560632
H        1.7876291642    1.2175987624   -2.8243877987
H        1.7969258140   -0.5576023078   -2.9414607073
H       -0.2001277875   -0.8334300839    2.6167197383
H        1.0077872216    0.4522237094    2.5561728387
H        1.1762690042   -0.9667910665    1.5039156473
H       -2.1047566851    0.7992589394    2.0848035412
H       -1.9737215984    1.8846017966    0.6877270005
H       -0.9402039251    2.1276387712    2.1149607218
H       -1.2415459965   -2.1525832035    1.1640025738
H       -2.6854601215   -1.2376772773    0.7136680412
27   
torsion grid (-15,)
C        0.9178824426    0.1216028551   -1.2459855252
C       -1.6137667695   -4.0602125451   -0.5288937476
C       -1.7886443738   -2.7690703417   -0.8255818425
C        0.7471740155    1.0957999818   -0.0989516085
C       -0.2310847765    0.3205126590    0.8127821951
C        1.9617145650    0.2279757426   -2.3103466736
C        0.5681663248   -0.5048722602    1.8434450131
C       -1.2605789684    1.2113407266    1.5088638962
C       -1.7383476234   -1.6654138869    0.1954640794
N       -0.0112668367   -0.7709795105   -1.2656289174
N       -0.8836044656   -0.5462137515   -0.2089126435
H       -1.7049845153   -4.8328652895   -1.2883235702
H       -1.3664442241   -4.3884578836    0.4794230401
H       -2.0186180788   -2.4723732296   -1.8463718466
H        1.6827011465    1.3583055801    0.4041883921
H        0.2956027784    2.0279975213   -0.4693843305
H        2.9711408907    0.1744863442   -1.8833462534
H        1.8909283162    1.1882665479   -2.8388647529
H        1.8448953465   -0.5789485445   -3.0375667863
H       -0.0855400717   -1.0875081704    2.4989023271
H        1.1565498433    0.1646028546    2.4797599089
H        1.2550362605   -1.1930144558    1.3403546422
H       -1.9709324635    0.6135274064    2.0903786998
H       -1.8240886188    1.7927330210    0.7733398860
H       -0.7674117369    1.9030897015    2.2002996784
H       -1.4081047123   -2.0974927083    1.1497450961
H       -2.7534595784   -1.2762310632    0.3582584410
27   
torsion grid (0,)
C        0.6387034673    0.2070566044   -1.2908079288
C       -1.6217701354   -4.0069464464   -0.2097649327
C       -1.8693018830   -2.7861070770   -0.6946419308
C        0.5467792036    1.1260431976   -0.0910099057
C       -0.4127986507    0.3288444715    0.8198793650
C        1.6529825121    0.3208532876   -2.3825359005
C        0.4087388093   -0.5964803967    1.7431722120
C       -1.3655712737    1.2066383134    1.6306649271
C       -2.0213499042   -1.5620991059    0.1681670654
N       -0.3246150627   -0.6479042774   -1.3190503632
N       -1.1558443310   -0.4383944157   -0.2232330314
H       -1.5603145017   -4.8748016087   -0.8620999911
H       -1.4672349874   -4.1807870405    0.8541398337
H       -2.0032672085   -2.6430920406   -1.7637593082
H        1.5105033849    1.3371793383    0.3820198645
H        0.1044174685    2.0869511597   -0.3928228147
H        2.6715053303    0.2058064232   -1.9908163875
H        1.6069246336    1.3073722122   -2.8631015187
H        1.4800281257   -0.4449025473   -3.1423573872
H       -0.2290161572   -1.1980841886    2.3971332536
H        1.0606458382    0.0037821880    2.3867360468
H        1.0344268258   -1.2742484972    1.1540762348
H       -2.0745984597    0.5965522465    2.2011175630
H       -1.9366816998    1.8648725972    0.9695228172
H       -0.8095509350    1.8226091596    2.3457676405
H       -1.8301325365   -1.8416223388    1.2095626365
H       -3.0667799429   -1.2239648084    0.1220181442
27   
torsion grid (15,)
C        0.7282931614    0.3503991970   -1.3286758438
C       -1.4453629523   -3.7969321317   -0.0132156233
C       -1.6638473710   -2.6652777590   -0.6909709313
C        0.6742205530    1.1865200717   -0.0692302765
C       -0.3605232142    0.3976366066    0.7617389428
C        1.7835731808    0.4546164889   -2.3819357953
C        0.3686990689   -0.6584748425    1.6183361883
C       -1.2545018557    1.2853071554    1.6265180329
C       -2.0397704717   -1.3576614029   -0.0428352875
N       -0.2928071789   -0.4255279871   -1.4388940734
N       -1.1481975230   -0.2222817341   -0.3525817742
H       -1.2112567995   -4.7291328264   -0.5222249796
H       -1.4913305783   -3.8315414213    1.0744987603
H       -1.5953330750   -2.6583541213   -1.7754360879
H        1.6399342880    1.2917592468    0.4343451270
H        0.3087560595    2.1959939290   -0.3079368116
H        2.7765705173    0.2369826675   -1.9690760726
H        1.8271394821    1.4706797139   -2.7961418795
H        1.5786545540   -0.2449039179   -3.1956473208
H       -0.3282179782   -1.2639930979    2.2046385264
H        1.0448781340   -0.1633861171    2.3237191952
H        0.9575390471   -1.3314968674    0.9879886195
H       -2.0178381058    0.6941887876    2.1444770226
H       -1.7629738758    2.0325068357    1.0105136769
H       -0.6628534818    1.8016585561    2.3903634300
H       -2.0946275323   -1.4832619647    1.0410326548
H       -3.0534157032   -1.0905157026   -0.3743317504
27   
torsion grid (30,)
C        0.6992508010    0.3980663720   -1.3516013895
C       -1.5143280452   -3.7643972284    0.2158824015
C       -1.5405079452   -2.6809164050   -0.5668639744
C        0.6950249497    1.1484350793   -0.0387535882
C       -0.3631680353    0.3521565135    0.7559515457
C        1.7421333836    0.5379582209   -2.4131633441
C        0.3271289951   -0.7665213451    1.5606778696
C       -1.2222586223    1.2301707121    1.6659220666
C       -2.0673640329   -1.3329654558   -0.1379179629
N       -0.3472286864   -0.3367729763   -1.4953566156
N       -1.1812174244   -0.1819464229   -0.3830457450
H       -1.1644312348   -4.7259527921   -0.1529069079
H       -1.8443831540   -3.7307458057    1.2536291635
H       -1.1934980327   -2.7406938371   -1.5954156002
H        1.6709165906    1.1771862277    0.4556727594
H        0.3742757252    2.1870529323   -0.2045203065
H        2.7328243833    0.2609668970   -2.0315530004
H        1.8139781113    1.5776381013   -2.7588979919
H        1.5022658352   -0.0978874357   -3.2684885487
H       -0.3960412625   -1.3897095945    2.0938172967
H        0.9998349818   -0.3272481213    2.3055954858
H        0.9130344772   -1.4172292817    0.9052372550
H       -1.9995330078    0.6427282522    2.1670538260
H       -1.7120308916    2.0178201983    1.0864268012
H       -0.6080115261    1.6951475447    2.4447880734
H       -2.3345444579   -1.3406455429    0.9212691112
H       -3.0000676104   -1.1491755928   -0.6896851832
27   
torsion grid (45,)
C        0.6952616548    0.4741614440   -1.4001469647
C       -1.6431829745   -3.7143458242    0.3695961070
C       -1.4408511823   -2.6677365275   -0.4367138138
C        0.7207312014    1.1634111653   -0.0539891862
C       -0.3384693891    0.3506042355    0.7255806383
C        1.7144448679    0.6655358613   -2.4766068928
C        0.3465134974   -0.7848777845    1.5091342117
C       -1.1924683273    1.2125597764    1.6567355536
C       -2.0545295373   -1.3004601461   -0.2391920209
N       -0.3572905984   -0.2499873176   -1.5570018501
N       -1.1627779089   -0.1512653416   -0.4205318527
H       -1.2144173318   -4.6908251424    0.1563277472
H       -2.2491399796   -3.6341239617    1.2717441310
H       -0.8280587620   -2.7738271409   -1.3300320928
H        1.7042273195    1.1546115930    0.4261965016
H        0.4171996686    2.2138921324   -0.1690025016
H        2.7131371960    0.3694727189   -2.1318751715
H        1.7804713480    1.7209381630   -2.7723379399
H        1.4541930077    0.0729281819   -3.3566844768
H       -0.3814276438   -1.4200328975    2.0202503196
H        1.0148237772   -0.3603606481    2.2667981668
H        0.9382911668   -1.4215072694    0.8450488416
H       -1.9671299936    0.6158930440    2.1508435048
H       -1.6842996111    2.0115897558    1.0949508055
H       -0.5737164265    1.6619419643    2.4411558511
H       -2.5142773694   -1.2189590431    0.7494676203
H       -2.8654459088   -1.1874318165   -0.9709866299
27   
torsion grid (60,)
C        0.6976852906    0.5168117268   -1.4219441911
C       -1.7949480453   -3.6848420587    0.5308741100
C       -1.4236017620   -2.7036810129   -0.2971365588
C        0.7281605936    1.1524158046   -0.0489713939
C       -0.3068475297    0.2922714502    0.7150296249
C        1.6911867980    0.7815193311   -2.5067224036
C        0.4132598561   -0.8424162027    1.4680615859
C       -1.1760984191    1.1070578860    1.6747517899
C       -2.0415481296   -1.3231846947   -0.3284378157
N       -0.3432277123   -0.2223675016   -1.5926323532
N       -1.1227905925   -0.1946614246   -0.4384688593
H       -1.3467357816   -4.6744870172    0.4829533491
H       -2.5648754152   -3.5330321227    1.2869665055
H       -0.6519950376   -2.8822680207   -1.0456594184
H        1.7174182322    1.1416703637    0.4191500399
H        0.4072616918    2.2016966451   -0.1201242785
H        2.7033663394    0.4941761357   -2.1953580538
H        1.7270886962    1.8506261633   -2.7550586176
H        1.4275876520    0.2234544759   -3.4081612217
H       -0.2931583684   -1.5046280827    1.9733094223
H        1.0811594457   -0.4149974274    2.2246864819
H        1.0143075991   -1.4499485309    0.7847423950
H       -1.9298391149    0.4764082026    2.1587184914
H       -1.6930263362    1.9076174922    1.1381724998
H       -0.5628798808    1.5517739351    2.4660614058
H       -2.6678122511   -1.1668431977    0.5554119884
H       -2.7034600110   -1.2608971629   -1.2005192488
27   
torsion grid (75,)
C        1.0275658803   -0.2648571432   -0.7168926807
C       -2.2910184543   -3.5295588731    1.3727301658
C       -1.5934686119   -2.4807797957    1.8178272885
C        1.1008767813    1.0282833860    0.0656341011
C       -0.1943224692    0.9449049718    0.9027986434
C        1.8707039067   -0.5895548952   -1.9078060785
C       -0.0415484056    1.5148037445    2.3130464711
C       -1.3481113681    1.6359729757    0.1500519591
C       -1.6885390333   -1.0895904929    1.2511675620
N        0.1969512407   -1.1020856533   -0.2030469722
N       -0.3653395705   -0.5431039599    0.9533103142
H       -2.2026559219   -4.5096229259    1.8349644579
H       -2.9670125520   -3.4437594151    0.5237261810
H       -0.9019921100   -2.5962690012    2.6522823001
H        1.9941745937    1.0262598610    0.7064989824
H        1.1476375405    1.9216170755   -0.5648728317
H        2.9383168521   -0.5487193034   -1.6547670808
H        1.7077765226    0.1346954563   -2.7156746767
H        1.6374413426   -1.5908752416   -2.2767377487
H       -0.9587409564    1.3826171201    2.8973431309
H        0.1721192297    2.5885492388    2.2745789258
H        0.7737516450    1.0126192310    2.8412848244
H       -2.2960720053    1.5408455117    0.6877935751
H       -1.4758805668    1.2078750986   -0.8494123181
H       -1.1362273126    2.7048004012    0.0387610917
H       -2.1338786730   -0.4368832648    2.0114858934
H       -2.3537334299   -1.0789432046    0.3756677369
27   
torsion grid (90,)
C        1.0290187695   -0.2272330769   -0.7893055384
C       -2.2625272766   -3.5360436944    1.5908654506
C       -1.6550019665   -2.3910366018    1.9153049606
C        1.1355532421    0.9984837938    0.0919354059
C       -0.1834892032    0.9034396377    0.8891080675
C        1.8738920323   -0.4891450560   -1.9941333123
C       -0.0570880499    1.3793531536    2.3357585339
C       -1.2934604467    1.6746384663    0.1466197906
C       -1.7280417531   -1.1229824462    1.1055920317
N        0.1626566475   -1.0703667405   -0.3485184047
N       -0.3947656954   -0.5790004934    0.8396677930
H       -2.1928364165   -4.4184937036    2.2222012200
H       -2.8447311377   -3.6298106681    0.6757308449
H       -1.0541825932   -2.3265804133    2.8225170930
H        2.0098618342    0.9079277831    0.7525104662
H        1.2349739522    1.9350443435   -0.4651563789
H        2.9391547403   -0.5079315801   -1.7288557191
H        1.7472738997    0.3010966210   -2.7446501098
H        1.6092134270   -1.4495120036   -2.4423061761
H       -0.9938051279    1.2332599650    2.8849603394
H        0.1827137512    2.4476084395    2.3719235233
H        0.7305409991    0.8240452666    2.8528493148
H       -2.2596186049    1.5840340089    0.6514850872
H       -1.4056881495    1.3060903776   -0.8780718043
H       -1.0442036205    2.7402666224    0.1010628103
H       -2.2728339338   -0.3776691360    1.6967661704
H       -2.2932864212   -1.2822772404    0.1789440333
27   
torsion grid (105,)
C        1.0152185686   -0.1822629472   -0.8657418129
C       -2.2368905056   -3.4895865916    1.8466490694
C       -1.7267865780   -2.2642637297    2.0017128010
C        1.1434147897    0.9610476782    0.1187149827
C       -0.1975503916    0.8480800450    0.8765612299
C        1.8778696250   -0.3757395093   -2.0706987075
C       -0.0982856106    1.1999254597    2.3604416407
C       -1.2615435824    1.7155822320    0.1722891406
C       -1.7794250593   -1.1763958189    0.9585726451
N        0.1129324491   -1.0294351866   -0.5097189730
N       -0.4524901194   -0.6135998460    0.6986871318
H       -2.1830620284   -4.2358365605    2.6356469295
H       -2.7208785605   -3.7889769921    0.9184239657
H       -1.2261079365   -1.9952955233    2.9321871505
H        1.9964676167    0.7798204463    0.7887362143
H        1.2908928512    1.9373454085   -0.3525747635
H        2.9361690502   -0.4508275236   -1.7876614311
H        1.7927134360    0.4742876180   -2.7592558949
H        1.5933026598   -1.2886326622   -2.5989544219
H       -1.0535162724    1.0312659375    2.8701421257
H        0.1638807453    2.2553039749    2.4920402492
H        0.6622885131    0.5845932472    2.8494036519
H       -2.2417957298    1.6301464900    0.6501719962
H       -1.3647049824    1.4264868436   -0.8784705041
H       -0.9696512024    2.7706065705    0.2104648301
H       -2.4359432998   -0.3776912194    1.3240439886
H       -2.2164839795   -1.5531999554    0.0287936450
27   
torsion grid (120,)
C        1.0277989435   -0.1492611454   -0.9400603636
C       -2.2420870192   -3.4016120260    2.0606657557
C       -1.7927577914   -2.1433424408    2.0364122874
C        1.1567066066    0.9179724200    0.1262312696
C       -0.1920802420    0.7643072547    0.8635052232
C        1.9068626974   -0.2709910207   -2.1424963082
C       -0.1005658843    1.0094991848    2.3696554258
C       -1.2399026917    1.6965133902    0.2198243936
C       -1.7807035165   -1.2650118572    0.8086722792
N        0.1132789470   -1.0105991564   -0.6534895769
N       -0.4629627600   -0.6742678918    0.5718757615
H       -2.2415448902   -3.9910420025    2.9744378208
H       -2.6217907516   -3.8868941109    1.1628724211
H       -1.4035940749   -1.6925075604    2.9492510774
H        2.0019670219    0.6791463885    0.7883196343
H        1.3177465292    1.9250908810   -0.2696894840
H        2.9598513877   -0.3785990739   -1.8499569584
H        1.8423498098    0.6245539328   -2.7732155408
H        1.6201677434   -1.1421427117   -2.7361512394
H       -1.0679359804    0.8427712291    2.8561960511
H        0.1961101117    2.0438925644    2.5742187239
H        0.6325499573    0.3369569116    2.8239177045
H       -2.2231803212    1.5939773632    0.6879190595
H       -1.3430676834    1.4861784974   -0.8494631728
H       -0.9306899256    2.7407487821    0.3360711646
H       -2.5384102569   -0.4777609610    0.9217417540
H       -2.0559426123   -1.8477184009   -0.0731804564
27   
torsion grid (135,)
C        1.0179478428   -0.0742900172   -0.9627998692
C       -2.3276612050   -3.1953977563    2.2635743831
C       -1.9219464583   -1.9337621867    2.0914438113
C        1.1527015454    0.9540583375    0.1378395053
C       -0.1788887010    0.7564332116    0.8963559771
C        1.8812016471   -0.1450766774   -2.1808148494
C       -0.0437061539    0.9639811527    2.4055421971
C       -1.2500726008    1.7014271304    0.3136954638
C       -1.7689215869   -1.2719744025    0.7434072965
N        0.1181674714   -0.9555608294   -0.6934334436
N       -0.4431483674   -0.6768970617    0.5563197657
H       -2.4428232136   -3.6277878575    3.2546866256
H       -2.5555198185   -3.8406471998    1.4165559415
H       -1.6950816430   -1.3256377991    2.9658107717
H        2.0141079471    0.7039457002    0.7743828014
H        1.2922942354    1.9775368205   -0.2231338219
H        2.9391467062   -0.2519461404   -1.9065999717
H        1.7989521053    0.7714158010   -2.7784640553
H        1.5946552266   -0.9977115042   -2.8008125067
H       -1.0054542420    0.8429676839    2.9142701467
H        0.3119635322    1.9780646408    2.6181102993
H        0.6647609598    0.2471549700    2.8299161420
H       -2.2176479795    1.5777879898    0.8086677450
H       -1.3856449487    1.5270475356   -0.7584547508
H       -0.9418861859    2.7426947688    0.4554421809
H       -2.5679702029   -0.5283125394    0.6049355984
H       -1.8910247211   -2.0164167418   -0.0451027187
27   
torsion grid (150,)
C        1.0110623557   -0.0738164468   -1.0091864261
C       -2.3459641080   -3.0334320675    2.3691436528
C       -2.1459666352   -1.7654019809    1.9976091755
C        1.1078771544    0.9516581475    0.0950180508
C       -0.1897633895    0.6771469731    0.8919141311
C        1.8820065570   -0.1055251683   -2.2238856820
C        0.0258864268    0.8225751698    2.4013460718
C       -1.3108087607    1.6166927630    0.4091657416
C       -1.7724344341   -1.3487149176    0.5974515324
N        0.1446156667   -0.9894891204   -0.7496586943
N       -0.4360329693   -0.7496059807    0.5004617121
H       -2.6380051037   -3.2913389441    3.3844659831
H       -2.2210756442   -3.8574427781    1.6686095463
H       -2.2856117907   -0.9748515331    2.7336602546
H        1.9998943022    0.7550944414    0.7071046346
H        1.1776446545    1.9835421917   -0.2638165469
H        2.9416263999   -0.1819003436   -1.9460254901
H        1.7733809469    0.8142842218   -2.8120994661
H        1.6248469102   -0.9601716469   -2.8538352319
H       -0.9037811772    0.6926164003    2.9620286345
H        0.4097630395    1.8228516307    2.6310641077
H        0.7457386148    0.0798284010    2.7555445453
H       -2.2555952192    1.4225479142    0.9258335437
H       -1.4787916355    1.5100279343   -0.6675294169
H       -1.0343584075    2.6569977381    0.6107489082
H       -2.5509037481   -0.6857671103    0.1870813862
H       -1.7412556380   -2.2315148025   -0.0429558910
27   
torsion grid (165,)
C        1.0402272515   -0.0746855529   -1.0354988224
C       -2.3378023449   -2.8361447811    2.4943994361
C       -2.2668407136   -1.6535851114    1.8759856993
C        1.1119673365    0.9137600903    0.1032371871
C       -0.1560947018    0.5535646837    0.9144559274
C        1.8982181197   -0.0263398131   -2.2591896263
C        0.0978402536    0.6166229144    2.4237529009
C       -1.3165650336    1.4809710658    0.5096625307
C       -1.7123540158   -1.4621978300    0.4873496412
N        0.2072928118   -1.0280885656   -0.8074511316
N       -0.3705264828   -0.8614593539    0.4589532706
H       -2.7663481458   -2.9348717284    3.4890345335
H       -1.9657418358   -3.7452456688    2.0251834424
H       -2.6587042007   -0.7724268226    2.3833742638
H        2.0250817556    0.7419902198    0.6904137912
H        1.1266839318    1.9585945815   -0.2241038924
H        2.9626656034   -0.0794681380   -1.9950999434
H        1.7529531218    0.9142788269   -2.8049991845
H        1.6615237787   -0.8609882993   -2.9229357417
H       -0.7963907306    0.3684137435    3.0005188972
H        0.4125995938    1.6262775777    2.7114765398
H        0.8844999048   -0.0894910486    2.7027627228
H       -2.2454803558    1.2237032942    1.0271673840
H       -1.5007041587    1.4352784888   -0.5687057707
H       -1.0713012276    2.5162265392    0.7692307234
H       -2.4285122087   -0.8824898666   -0.1174953079
H       -1.6027748585   -2.4345927193    0.0033159599
27   
torsion grid (180,)
C        0.9529938528    0.0864402422   -1.0790844029
C       -2.7824469680   -1.9742325728    2.6190389288
C       -2.6738081405   -1.4060837149    1.4138638843
C        0.6290200447    1.2394555156   -0.1610123862
C       -0.3907782816    0.5829470565    0.7956923933
C        2.1179485111    0.0368742117   -2.0147040552
C        0.3526699490   -0.0224113938    2.0020264126
C       -1.4660090004    1.5701003913    1.2545937644
C       -1.5634776662   -1.6847011261    0.4395692398
N        0.0693476019   -0.8448909768   -1.0199643390
N       -0.9535498868   -0.4712276831   -0.1248958278
H       -3.6368320641   -1.7835112842    3.2636226135
H       -2.0206048252   -2.6528410585    2.9994611828
H       -3.4574827405   -0.7332579377    1.0648157375
H        1.5004195483    1.6489378172    0.3594008814
H        0.1698364346    2.0563559768   -0.7361669715
H        3.0653175645    0.1212751147   -1.4679758164
H        2.0846322319    0.8739748168   -2.7241865705
H        2.1151629769   -0.8990969134   -2.5778418331
H       -0.3330953928   -0.5328705372    2.6812258681
H        0.8500956745    0.7745671149    2.5653831314
H        1.1181295818   -0.7345569771    1.6768592880
H       -2.1494839318    1.1172057255    1.9764281383
H       -2.0471117474    1.9240599820    0.3979930888
H       -0.9973334660    2.4345123575    1.7386243630
H       -1.9632112946   -2.2405443435   -0.4158674633
H       -0.8135885678   -2.3330176453    0.9176847201
