15   
torsion grid (-165,)
C        1.9147782253    2.4424765287   -0.3377094752
C        1.3247917121    1.7493829434    0.9068778068
C        1.1176042583    0.2724146471    0.6926637905
C        1.6996064317   -0.7449848865    1.3462295573
C        2.6972388175   -0.6711144461    2.4717872713
H        2.3022423371    3.4363421650   -0.0887154812
H        1.1722851249    2.5453449301   -1.1360878983
H        2.7530976612    1.8607758046   -0.7361260452
H        1.9858012773    1.9199536756    1.7614297269
H        0.3657783500    2.2196554355    1.1618104507
H        0.4194326882    0.0167158120   -0.1068224161
H        1.4309143822   -1.7553575127    1.0353417540
H        2.3045854048   -1.1624502571    3.3709300995
H        2.9634489883    0.3536517943    2.7399962948
H        3.6208598762   -1.1989637377    2.2030675506
15   
torsion grid (-150,)
C        1.8637315161    2.4502276794   -0.4069245002
C        1.3062015078    1.7457877050    0.8526278523
C        1.1364551794    0.2621164624    0.6524121984
C        1.7158102260   -0.7344784645    1.3396515417
C        2.6660851061   -0.6267570170    2.5028023091
H        2.4587347721    3.3291774471   -0.1382814600
H        1.0695450999    2.7577786290   -1.0942262817
H        2.5335517936    1.7782803280   -0.9544642749
H        1.9739112239    1.9341610077    1.6977713369
H        0.3409220609    2.1925993233    1.1238847287
H        0.4744468882   -0.0195697616   -0.1688854891
H        1.4788447869   -1.7539114956    1.0325702289
H        2.2434795699   -1.1087183315    3.3934592651
H        2.9059386922    0.4060958836    2.7647837654
H        3.6073398887   -1.1453534398    2.2815472133
15   
torsion grid (-135,)
C        1.9091423083    2.4671181127   -0.3202473796
C        1.3322850259    1.7119636919    0.9075107470
C        1.1964084266    0.2308827493    0.6645826763
C        1.7818320508   -0.7726351562    1.3363398381
C        2.7121700632   -0.6771795157    2.5165378602
H        2.6840364899    3.1797228796   -0.0208741369
H        1.1367710461    3.0116300715   -0.8717710804
H        2.3823007568    1.7691347717   -1.0185224657
H        1.9648222352    1.8908889553    1.7806257210
H        0.3477637297    2.1249844743    1.1608633840
H        0.5530320253   -0.0398582814   -0.1748296948
H        1.5686412378   -1.7879082056    0.9994555175
H        2.2837799994   -1.1849533960    3.3899185753
H        2.9323431452    0.3532061280    2.8044463037
H        3.6644854713   -1.1764192648    2.2982297480
15   
torsion grid (-120,)
C        1.9262720568    2.4661908925   -0.2993125369
C        1.3209413759    1.6937971358    0.9063463158
C        1.2211541484    0.2108610968    0.6563678080
C        1.8160396765   -0.7834826558    1.3333623976
C        2.7285432166   -0.6711459377    2.5258827364
H        2.8438483894    2.9907085288   -0.0156249544
H        1.2319967222    3.2141965126   -0.6947150848
H        2.1815153434    1.7880251186   -1.1192702953
H        1.9031809253    1.8919911000    1.8093926061
H        0.3128693970    2.0759460300    1.1108155029
H        0.5956093110   -0.0676127734   -0.1936962873
H        1.6262684228   -1.8020321355    0.9923651548
H        2.2955695010   -1.1809668858    3.3958519404
H        2.9306770321    0.3636341937    2.8115742461
H        3.6904980491   -1.1579363887    2.3224802081
15   
torsion grid (-105,)
C        1.9452246477    2.4581892570   -0.2793953756
C        1.3137994199    1.6751010205    0.9014443863
C        1.2491336206    0.1909250876    0.6468952122
C        1.8538272988   -0.7931366974    1.3300949241
C        2.7485689092   -0.6631425700    2.5341829856
H        2.9656274138    2.7762871927   -0.0439464413
H        1.3770640648    3.3672389318   -0.5036623870
H        1.9791774207    1.8560139490   -1.1922882483
H        1.8486432106    1.8947912945    1.8286337943
H        0.2867391688    2.0309590793    1.0551487871
H        0.6407554064   -0.0961126741   -0.2125744070
H        1.6878043145   -1.8149243483    0.9864194898
H        2.3164609752   -1.1838884029    3.3980912525
H        2.9240157759    0.3756501568    2.8231461829
H        3.7236576964   -1.1278684882    2.3420304905
15   
torsion grid (-90,)
C        2.3101350810    2.4434977336    0.0526022068
C        1.7024068993    1.5370078223    1.1466314065
C        1.6968331449    0.0818527765    0.7542626538
C        2.3415222239   -0.9372199028    1.3429691308
C        3.2331346198   -0.8834904234    2.5551738642
H        3.3899994703    2.5586873408    0.1909413348
H        1.8785081030    3.4499128066    0.0937779337
H        2.1289184898    2.0439988816   -0.9501405915
H        2.2206544007    1.6960310119    2.0957894010
H        0.6600589573    1.8401699155    1.3144129283
H        1.0985928946   -0.1467603927   -0.1294946514
H        2.2156849802   -1.9284129106    0.9054430799
H        2.8270693784   -1.5032333781    3.3646390598
H        3.3631949223    0.1297243117    2.9422906512
H        4.2273102449   -1.2839737417    2.3207595857
15   
torsion grid (-75,)
C        2.2198474737    2.4419740437    0.0921454670
C        1.6036304723    1.5219939894    1.1633091731
C        1.6470926463    0.0695187477    0.7644699913
C        2.3156184369   -0.9313276574    1.3578875728
C        3.1880142994   -0.8557636292    2.5828920749
H        3.3126106310    2.3727107144    0.0991314696
H        1.9561018851    3.4893720731    0.2778525259
H        1.8660907593    2.1800236217   -0.9107759663
H        2.0994615688    1.6885022107    2.1236599096
H        0.5521575176    1.8063078784    1.3070980982
H        1.0692204134   -0.1744713781   -0.1287777297
H        2.2289691235   -1.9235303234    0.9132172398
H        2.7932156573   -1.4962840266    3.3816580958
H        3.2770465792    0.1580784606    2.9796975139
H        4.1988324146   -1.2190314237    2.3591643389
15   
torsion grid (-60,)
C        2.2086684665    2.4460596294    0.1701371002
C        1.5987333574    1.4937952333    1.2145221961
C        1.6812946583    0.0518390319    0.7856314378
C        2.3620242962   -0.9455509615    1.3710486844
C        3.2053074267   -0.8795682211    2.6168586780
H        3.2656766389    2.2140740395    0.0030338522
H        2.1306196334    3.4898889149    0.4934960712
H        1.6947993156    2.3543483897   -0.7935714620
H        2.0938838030    1.6437433333    2.1783172504
H        0.5438768643    1.7610057997    1.3648480876
H        1.1285423248   -0.1874528857   -0.1248302588
H        2.3096381572   -1.9286193700    0.9014353242
H        2.8100451746   -1.5514722228    3.3891534702
H        3.2589276241    0.1249060033    3.0425625416
H        4.2299956068   -1.2106328121    2.4065896548
15   
torsion grid (-45,)
C        2.2281463030    2.4620584337    0.2264844792
C        1.6220118666    1.4764093588    1.2454325500
C        1.7361292857    0.0449240221    0.7895094870
C        2.4119653211   -0.9555522820    1.3753849169
C        3.2165827659   -0.9076366922    2.6473194909
H        3.1981552539    2.1034750843   -0.1328031590
H        2.3537129427    3.4600587140    0.6589095643
H        1.5823958091    2.5592668106   -0.6541396120
H        2.1148891041    1.6063953417    2.2132948815
H        0.5646859489    1.7270669906    1.4034889549
H        1.2141035290   -0.1844773133   -0.1415704344
H        2.3882330524   -1.9282436929    0.8824207565
H        2.8097808899   -1.6054283360    3.3900503502
H        3.2409081533    0.0860425483    3.1000123769
H        4.2524374876   -1.2169660756    2.4596522414
15   
torsion grid (-30,)
C        2.1863872558    2.4673938611    0.1546473099
C        1.6111391774    1.4739123374    1.1919428713
C        1.7623543213    0.0397780544    0.7552001386
C        2.4277413428   -0.9461156637    1.3767921934
C        3.1751898979   -0.8788603924    2.6822550896
H        3.0184134170    2.0199630860   -0.3980050285
H        2.5284902820    3.3932694534    0.6267056520
H        1.4305212101    2.7371771010   -0.5919957302
H        2.1080091792    1.6238539952    2.1545230055
H        0.5499254338    1.6976149999    1.3602447463
H        1.2834290020   -0.2057412244   -0.1948378543
H        2.4373516800   -1.9228048823    0.8913071639
H        2.7408018279   -1.5728002807    3.4129333856
H        3.1709555836    0.1189519721    3.1264013804
H        4.2207314529   -1.1816048993    2.5442521627
15   
torsion grid (-15,)
C        2.1949104181    2.4764386916    0.2052730926
C        1.6146234532    1.4469760566    1.2124331120
C        1.8040509200    0.0226847887    0.7577423840
C        2.4765451173   -0.9592553967    1.3778540866
C        3.2014484090   -0.8947105840    2.6961085750
H        2.8625924066    1.9928432827   -0.5143363039
H        2.7564484180    3.2660079695    0.7133314598
H        1.4023702722    2.9593228508   -0.3761650085
H        2.0752767360    1.5899314105    2.1932301776
H        0.5434823280    1.6383323988    1.3532480681
H        1.3455855184   -0.2174416120   -0.2035328685
H        2.5125282938   -1.9290571335    0.8799409071
H        2.7651815872   -1.6013108452    3.4134223677
H        3.1761698985    0.0989006049    3.1490445125
H        4.2532291217   -1.1814148417    2.5722088946
15   
torsion grid (0,)
C        2.2044650998    2.4766613300    0.2353797704
C        1.6037556125    1.4257295183    1.2106404028
C        1.8322598486    0.0084567561    0.7517137904
C        2.5163362807   -0.9625485236    1.3763129142
C        3.2226352555   -0.8861367418    2.7039785774
H        2.6905445202    1.9942271495   -0.6182018105
H        2.9653928897    3.0877897357    0.7306103990
H        1.4413971521    3.1557906935   -0.1570560745
H        2.0061429028    1.5732678292    2.2156762843
H        0.5218600895    1.5883778180    1.2952035276
H        1.3921075618   -0.2340598210   -0.2172464197
H        2.5778799387   -1.9299717551    0.8762704568
H        2.7868831774   -1.5969803359    3.4174555386
H        3.1778223560    0.1083789200    3.1536305546
H        4.2798012119   -1.1583418435    2.5944731159
15   
torsion grid (15,)
C        2.2462548324    2.4812261792    0.3024540411
C        1.6348901449    1.4040807033    1.2357948221
C        1.9035331684    0.0007444601    0.7564872445
C        2.5977556108   -0.9665917324    1.3754618634
C        3.2817850071   -0.8952366757    2.7149771902
H        2.5316588168    2.0534731254   -0.6639770858
H        3.1657500122    2.8909576404    0.7338590465
H        1.5607904870    3.3156510503    0.1271977470
H        1.9868370097    1.5476803109    2.2602297981
H        0.5459157607    1.5402408541    1.2705190526
H        1.4837239263   -0.2320037148   -0.2236653392
H        2.6867033788   -1.9246922857    0.8617823329
H        2.8529288529   -1.6278060290    3.4104250130
H        3.2058238163    0.0908305492    3.1789547414
H        4.3468508770   -1.1398389928    2.6175566390
15   
torsion grid (30,)
C        2.5011681846    2.3150399920    0.0121673804
C        1.9818473344    1.5722956108    1.2634382967
C        1.3735906109    0.2354437235    0.9265103199
C        1.7986603747   -0.9828128422    1.2952208159
C        2.9909320828   -1.3205572689    2.1506011721
H        1.9141571398    2.0535218728   -0.8747407768
H        3.5315907386    2.0161600402   -0.2096177288
H        2.4854239245    3.4016484686    0.1419709688
H        2.7814168742    1.4768140922    2.0027341011
H        1.2015109723    2.1833080134    1.7371443834
H        0.4889789080    0.2867509692    0.2893869124
H        1.2240230812   -1.8407634876    0.9439149468
H        2.6795702080   -1.8473615999    3.0615004986
H        3.5610018945   -0.4387522477    2.4519393196
H        3.6715919190   -1.9938998978    1.6148575374
15   
torsion grid (45,)
C        2.3311242699    2.3670452460   -0.0463706298
C        1.8165731169    1.6557373613    1.2194582581
C        1.2540007674    0.2908770634    0.9174709846
C        1.7127312791   -0.9014062816    1.3283016718
C        2.9042320202   -1.1753497858    2.2073312789
H        1.6159249080    2.2697211005   -0.8707773935
H        3.2689043447    1.9145609716   -0.3868759693
H        2.5113029219    3.4319071467    0.1346533393
H        2.6147849934    1.6033271286    1.9651607447
H        1.0185995816    2.2647199313    1.6661561123
H        0.3754202953    0.2937367281    0.2698321441
H        1.1707969419   -1.7875606326    0.9955133432
H        2.5984603310   -1.6874999089    3.1284107683
H        3.4409439995   -0.2672974303    2.4912677045
H        3.6136930089   -1.8399011063    1.6986546851
15   
torsion grid (60,)
C        2.3003961732    2.3768092254   -0.0693054645
C        1.7907029157    1.6605034785    1.1944077380
C        1.2564419185    0.2847686300    0.8913305365
C        1.7217657648   -0.8962151379    1.3268507147
C        2.8888572294   -1.1462813494    2.2449372961
H        1.4982434305    2.4953102401   -0.8065237295
H        3.1077733838    1.8075589830   -0.5414070793
H        2.6805023835    3.3758091322    0.1716875368
H        2.5934688900    1.6133407718    1.9358958349
H        0.9898890741    2.2629212782    1.6444534717
H        0.3975193028    0.2654919399    0.2177973523
H        1.2040876275   -1.7933254929    0.9849481087
H        2.5618237805   -1.6625119001    3.1563479441
H        3.3994064317   -0.2285154222    2.5451115460
H        3.6267124341   -1.7988445839    1.7616376171
15   
torsion grid (75,)
C        2.3075096052    2.3770287552   -0.0180127889
C        1.8012847167    1.6216965747    1.2273366356
C        1.2971276442    0.2419871434    0.8920387982
C        1.7681791495   -0.9367361625    1.3276755612
C        2.9087250963   -1.1820863912    2.2798175248
H        1.4747190875    2.7296546319   -0.6365596890
H        2.9548709403    1.7426361735   -0.6310245221
H        2.8801724201    3.2641487310    0.2758050257
H        2.6057166741    1.5624088893    1.9660754559
H        0.9957318084    2.2024520717    1.6958275436
H        0.4591955528    0.2157874989    0.1925753245
H        1.2766244147   -1.8371412681    0.9570693466
H        2.5596335575   -1.7148488029    3.1733563267
H        3.3961014212   -0.2616397219    2.6087354661
H        3.6711032258   -1.8179576501    1.8125714311
15   
torsion grid (90,)
C        2.1964203582    2.4009485351   -0.2323797592
C        1.6977527409    1.6999937855    1.0536999030
C        1.2284153550    0.2914920104    0.7953835334
C        1.7127392878   -0.8472216887    1.3148830348
C        2.8353477460   -1.0091670547    2.3054165279
H        1.3858685128    2.9299589133   -0.7447527184
H        2.6499672367    1.6889209323   -0.9278370274
H        2.9513091604    3.1572421124    0.0102752706
H        2.4988822937    1.6941545391    1.7977913948
H        0.8794545486    2.2854576437    1.4919940544
H        0.4070296567    0.2029644467    0.0815298654
H        1.2477151073   -1.7791069714    0.9907582899
H        2.4750348426   -1.4893271202    3.2239713776
H        3.2992344740   -0.0605775975    2.5845856914
H        3.6189657183   -1.6596807444    1.8972092122
15   
torsion grid (105,)
C        2.2132931222    2.4113953580   -0.1958807147
C        1.7010338313    1.6762607333    1.0721815539
C        1.2648264561    0.2625244286    0.7851691065
C        1.7543724973   -0.8738089082    1.3049313148
C        2.8544087718   -1.0276391489    2.3216837605
H        1.4843743679    3.1378735849   -0.5688819344
H        2.4427874981    1.7087694086   -1.0021814295
H        3.1298459025    2.9702519282    0.0201194264
H        2.4793398029    1.6781917470    1.8393956576
H        0.8565404779    2.2315518776    1.4991861838
H        0.4636714921    0.1693448118    0.0494218220
H        1.3128795161   -1.8095430691    0.9596653037
H        2.4785147039   -1.5185482175    3.2282536239
H        3.2983144080   -0.0746309842    2.6179722573
H        3.6565229678   -1.6647352285    1.9285921555
15   
torsion grid (120,)
C        2.1235082798    2.4176513894   -0.3224563206
C        1.5996596694    1.7187238254    0.9633740664
C        1.2142955030    0.2807372347    0.7284850072
C        1.7320834005   -0.8178065176    1.2994577367
C        2.8265567504   -0.8933469517    2.3308635025
H        1.5114558995    3.2826176184   -0.5961555226
H        2.1190341361    1.7321160951   -1.1756094820
H        3.1530586233    2.7661239237   -0.1963457180
H        2.3441238261    1.7912695978    1.7598174566
H        0.7156635394    2.2548083989    1.3312410182
H        0.4248786101    0.1349065203   -0.0111220290
H        1.3223829234   -1.7803687104    0.9906575758
H        2.4570324264   -1.3523812707    3.2565748422
H        3.2403743578    0.0850580537    2.5852559468
H        3.6500068696   -1.5242965298    1.9737113103
15   
torsion grid (135,)
C        2.0369301342    2.4074932513   -0.3956112971
C        1.4986479476    1.7455300225    0.8994430351
C        1.1560869512    0.2901688441    0.7095333910
C        1.6951372115   -0.7742680472    1.3236989369
C        2.7805683631   -0.7836158374    2.3672736431
H        1.5811945553    3.3869241352   -0.5720332888
H        1.8036782195    1.7928979482   -1.2717447277
H        3.1240848115    2.5261133545   -0.3676259468
H        2.2101461775    1.8812341329    1.7177271144
H        0.5826493574    2.2653652871    1.2092462389
H        0.3795372618    0.0999747777   -0.0334410615
H        1.3133917620   -1.7575314587    1.0458647477
H        2.4151504159   -1.2216837810    3.3047002811
H        3.1633648633    0.2146519018    2.5914927753
H        3.6254706081   -1.4019391037    2.0393396502
15   
torsion grid (150,)
C        2.1699971901    2.3509024087   -0.3184134014
C        1.6057017379    1.6589271667    0.9424451764
C        1.2951085648    0.2025058239    0.7109882080
C        1.8497521763   -0.8665904311    1.3026960247
C        2.9239105796   -0.8794665979    2.3578348856
H        1.9077409442    3.4137164392   -0.3458289612
H        1.7455246430    1.9033249482   -1.2244607519
H        3.2571216730    2.2463066332   -0.3838847625
H        2.2882997295    1.7955393081    1.7853704697
H        0.6695520754    2.1586937523    1.2259355891
H        0.5312323634    0.0168660897   -0.0461092059
H        1.4917999349   -1.8501089238    0.9956357542
H        2.5582962039   -1.3495886876    3.2795274325
H        3.2822116534    0.1208406254    2.6115123928
H        3.7856738436   -1.4705555805    2.0236339402
15   
torsion grid (165,)
C        1.9287897597    2.4192926990   -0.4407071066
C        1.3421939084    1.7866718710    0.8356321741
C        1.0703133949    0.3139218611    0.6696777489
C        1.6385669864   -0.7108163382    1.3237417521
C        2.6879740174   -0.6461397322    2.4016802251
H        1.8745551070    3.5127756433   -0.4032513276
H        1.3658860191    2.0993122960   -1.3252501438
H        2.9713486329    2.1203197452   -0.5882981029
H        2.0055841380    1.9776782464    1.6838280473
H        0.3925876630    2.2872406867    1.0695253742
H        0.3290232013    0.0713870922   -0.0939051795
H        1.3132452139   -1.7168827644    1.0559654204
H        2.3151332220   -1.0886515185    3.3340574689
H        3.0103942824    0.3742914010    2.6207389106
H        3.5745320066   -1.2239202719    2.1119055331
15   
torsion grid (180,)
C        1.8774551735    2.4193736290   -0.4889218182
C        1.2803483290    1.7995468540    0.7874882479
C        1.0367568965    0.3200486301    0.6402248135
C        1.6114567213   -0.6830275549    1.3217587838
C        2.6358020715   -0.5836269719    2.4210163188
H        2.0473647064    3.4943619471   -0.3627826749
H        1.2091910444    2.2811145546   -1.3462991584
H        2.8356982831    1.9502710121   -0.7356685750
H        1.9402430013    2.0045017893    1.6354219055
H        0.3269162002    2.2972781749    1.0109891489
H        0.3161828142    0.0494430336   -0.1339103265
H        1.3122234988   -1.6990770706    1.0613801460
H        2.2536990485   -1.0281969360    3.3486109189
H        2.9285707757    0.4458357879    2.6390857001
H        3.5422520907   -1.1417308943    2.1550511642
