
  -OEChem-12102412483D

 40 43  0     0  0  0  0  0  0999 V2000
   -1.9200   -1.6919    0.2198 C   0  0  0  0  0  0  0  0  0  0  0  0
   -0.6573   -1.2293    0.6107 C   0  0  0  0  0  0  0  0  0  0  0  0
   -2.0716   -3.0146   -0.1955 C   0  0  0  0  0  0  0  0  0  0  0  0
    0.4339   -2.0965    0.5762 C   0  0  0  0  0  0  0  0  0  0  0  0
    7.1620   -6.4368   -1.3035 C   0  0  0  0  0  0  0  0  0  0  0  0
    5.9141   -5.9367   -0.9385 C   0  0  0  0  0  0  0  0  0  0  0  0
    4.7580   -7.9907   -1.6241 C   0  0  0  0  0  0  0  0  0  0  0  0
   -0.9780   -3.8925   -0.2382 C   0  0  0  0  0  0  0  0  0  0  0  0
    0.2854   -3.4238    0.1491 C   0  0  0  0  0  0  0  0  0  0  0  0
    7.2108   -7.7277   -1.8364 C   0  0  0  0  0  0  0  0  0  0  0  0
    4.7220   -6.6904   -1.0912 C   0  0  0  0  0  0  0  0  0  0  0  0
    6.0186   -8.4509   -1.9765 C   0  0  0  0  0  0  0  0  0  0  0  0
    7.7218   -9.6264   -2.6742 C   0  0  0  0  0  0  0  0  0  0  0  0
    2.2422   -6.5704   -0.6820 C   0  0  0  0  0  0  0  0  0  0  0  0
   -1.1409   -5.3320   -0.6681 C   0  0  0  0  0  0  0  0  0  0  0  0
    1.5248   -4.3013    0.1002 C   0  0  0  0  0  0  0  0  0  0  0  0
   -0.0778   -6.2084   -0.0136 C   0  0  0  0  0  0  0  0  0  0  0  0
    8.3676  -10.8358   -3.2502 C   0  0  0  0  0  0  0  0  0  0  0  0
    8.2752   -8.5167   -2.2947 N   0  0  0  0  0  0  0  0  0  0  0  0
    1.2529   -5.6752   -0.3066 N   0  0  0  0  0  0  0  0  0  0  0  0
    3.5295   -6.0506   -0.6891 N   0  0  0  0  0  0  0  0  0  0  0  0
    1.9906   -7.7360   -0.9949 O   0  0  0  0  0  0  0  0  0  0  0  0
    6.3446   -9.6768   -2.5165 O   0  0  0  0  0  0  0  0  0  0  0  0
   -2.7791   -1.0267    0.2470 H   0  0  0  0  0  0  0  0  0  0  0  0
   -0.5269   -0.2028    0.9428 H   0  0  0  0  0  0  0  0  0  0  0  0
   -3.0537   -3.3807   -0.4879 H   0  0  0  0  0  0  0  0  0  0  0  0
    1.4156   -1.7390    0.8831 H   0  0  0  0  0  0  0  0  0  0  0  0
    8.0633   -5.8447   -1.1783 H   0  0  0  0  0  0  0  0  0  0  0  0
    5.8494   -4.9329   -0.5227 H   0  0  0  0  0  0  0  0  0  0  0  0
    3.8579   -8.5775   -1.7375 H   0  0  0  0  0  0  0  0  0  0  0  0
   -2.1384   -5.6954   -0.3985 H   0  0  0  0  0  0  0  0  0  0  0  0
   -1.0488   -5.4163   -1.7581 H   0  0  0  0  0  0  0  0  0  0  0  0
    2.2079   -3.8443   -0.6262 H   0  0  0  0  0  0  0  0  0  0  0  0
    2.0192   -4.2674    1.0856 H   0  0  0  0  0  0  0  0  0  0  0  0
   -0.2358   -6.2390    1.0745 H   0  0  0  0  0  0  0  0  0  0  0  0
   -0.1083   -7.2283   -0.3922 H   0  0  0  0  0  0  0  0  0  0  0  0
    8.1771  -11.7120   -2.6219 H   0  0  0  0  0  0  0  0  0  0  0  0
    7.9687  -11.0492   -4.2472 H   0  0  0  0  0  0  0  0  0  0  0  0
    9.4425  -10.6671   -3.3194 H   0  0  0  0  0  0  0  0  0  0  0  0
    3.6673   -5.1247   -0.3133 H   0  0  0  0  0  0  0  0  0  0  0  0
  1  2  1  0  0  0  0
  1  3  2  0  0  0  0
  1 24  1  0  0  0  0
  2  4  2  0  0  0  0
  2 25  1  0  0  0  0
  3  8  1  0  0  0  0
  3 26  1  0  0  0  0
  4  9  1  0  0  0  0
  4 27  1  0  0  0  0
  5  6  2  0  0  0  0
  5 10  1  0  0  0  0
  5 28  1  0  0  0  0
  6 11  1  0  0  0  0
  6 29  1  0  0  0  0
  7 11  2  0  0  0  0
  7 12  1  0  0  0  0
  7 30  1  0  0  0  0
  8  9  2  0  0  0  0
  8 15  1  0  0  0  0
  9 16  1  0  0  0  0
 10 12  2  0  0  0  0
 10 19  1  0  0  0  0
 11 21  1  0  0  0  0
 12 23  1  0  0  0  0
 13 18  1  0  0  0  0
 13 19  2  0  0  0  0
 13 23  1  0  0  0  0
 14 20  1  0  0  0  0
 14 21  1  0  0  0  0
 14 22  2  0  0  0  0
 15 17  1  0  0  0  0
 15 31  1  0  0  0  0
 15 32  1  0  0  0  0
 16 20  1  0  0  0  0
 16 33  1  0  0  0  0
 16 34  1  0  0  0  0
 17 20  1  0  0  0  0
 17 35  1  0  0  0  0
 17 36  1  0  0  0  0
 18 37  1  0  0  0  0
 18 38  1  0  0  0  0
 18 39  1  0  0  0  0
 21 40  1  0  0  0  0
M  END
$$$$
