
  -OEChem-12122420523D

 40 43  0     0  0  0  0  0  0999 V2000
    1.3764   -1.0544    0.0149 C   0  0  0  0  0  0  0  0  0  0  0  0
    0.0753   -0.8393    0.4845 C   0  0  0  0  0  0  0  0  0  0  0  0
    2.2054   -1.9637    0.6725 C   0  0  0  0  0  0  0  0  0  0  0  0
   -0.3769   -1.5366    1.6051 C   0  0  0  0  0  0  0  0  0  0  0  0
    5.0371   -3.6164    8.7270 C   0  0  0  0  0  0  0  0  0  0  0  0
    4.3117   -3.9439    7.5836 C   0  0  0  0  0  0  0  0  0  0  0  0
    2.7036   -2.1234    7.9382 C   0  0  0  0  0  0  0  0  0  0  0  0
    1.7577   -2.6691    1.7990 C   0  0  0  0  0  0  0  0  0  0  0  0
    0.4522   -2.4493    2.2707 C   0  0  0  0  0  0  0  0  0  0  0  0
    4.5935   -2.5296    9.4852 C   0  0  0  0  0  0  0  0  0  0  0  0
    3.1608   -3.2176    7.1835 C   0  0  0  0  0  0  0  0  0  0  0  0
    3.4540   -1.8289    9.0673 C   0  0  0  0  0  0  0  0  0  0  0  0
    4.2606   -0.9665   10.9043 C   0  0  0  0  0  0  0  0  0  0  0  0
    1.3766   -3.1682    5.4122 C   0  0  0  0  0  0  0  0  0  0  0  0
    2.6819   -3.6462    2.5036 C   0  0  0  0  0  0  0  0  0  0  0  0
   -0.0881   -3.2003    3.4781 C   0  0  0  0  0  0  0  0  0  0  0  0
    1.8834   -4.5963    3.3994 C   0  0  0  0  0  0  0  0  0  0  0  0
    4.2825    0.0053   12.0297 C   0  0  0  0  0  0  0  0  0  0  0  0
    5.0773   -1.9448   10.6639 N   0  0  0  0  0  0  0  0  0  0  0  0
    0.9691   -3.8422    4.2604 N   0  0  0  0  0  0  0  0  0  0  0  0
    2.5344   -3.6560    5.9967 N   0  0  0  0  0  0  0  0  0  0  0  0
    0.7294   -2.2360    5.8898 O   0  0  0  0  0  0  0  0  0  0  0  0
    3.2362   -0.8197    9.9808 O   0  0  0  0  0  0  0  0  0  0  0  0
    1.7406   -0.5165   -0.8566 H   0  0  0  0  0  0  0  0  0  0  0  0
   -0.5781   -0.1293   -0.0159 H   0  0  0  0  0  0  0  0  0  0  0  0
    3.2167   -2.1339    0.3076 H   0  0  0  0  0  0  0  0  0  0  0  0
   -1.3849   -1.3645    1.9779 H   0  0  0  0  0  0  0  0  0  0  0  0
    5.9148   -4.1854    9.0178 H   0  0  0  0  0  0  0  0  0  0  0  0
    4.6376   -4.7857    6.9757 H   0  0  0  0  0  0  0  0  0  0  0  0
    1.8259   -1.5651    7.6463 H   0  0  0  0  0  0  0  0  0  0  0  0
    3.2588   -4.2183    1.7678 H   0  0  0  0  0  0  0  0  0  0  0  0
    3.4059   -3.0946    3.1172 H   0  0  0  0  0  0  0  0  0  0  0  0
   -0.6289   -2.5229    4.1374 H   0  0  0  0  0  0  0  0  0  0  0  0
   -0.7891   -3.9780    3.1471 H   0  0  0  0  0  0  0  0  0  0  0  0
    1.2655   -5.2598    2.7847 H   0  0  0  0  0  0  0  0  0  0  0  0
    2.5362   -5.2560    3.9763 H   0  0  0  0  0  0  0  0  0  0  0  0
    4.3758    1.0295   11.6540 H   0  0  0  0  0  0  0  0  0  0  0  0
    3.3549   -0.0528   12.6084 H   0  0  0  0  0  0  0  0  0  0  0  0
    5.1288   -0.2202   12.6791 H   0  0  0  0  0  0  0  0  0  0  0  0
    2.9544   -4.4770    5.5888 H   0  0  0  0  0  0  0  0  0  0  0  0
  1  2  1  0  0  0  0
  1  3  2  0  0  0  0
  1 24  1  0  0  0  0
  2  4  2  0  0  0  0
  2 25  1  0  0  0  0
  3  8  1  0  0  0  0
  3 26  1  0  0  0  0
  4  9  1  0  0  0  0
  4 27  1  0  0  0  0
  5  6  2  0  0  0  0
  5 10  1  0  0  0  0
  5 28  1  0  0  0  0
  6 11  1  0  0  0  0
  6 29  1  0  0  0  0
  7 11  2  0  0  0  0
  7 12  1  0  0  0  0
  7 30  1  0  0  0  0
  8  9  2  0  0  0  0
  8 15  1  0  0  0  0
  9 16  1  0  0  0  0
 10 12  2  0  0  0  0
 10 19  1  0  0  0  0
 11 21  1  0  0  0  0
 12 23  1  0  0  0  0
 13 18  1  0  0  0  0
 13 19  2  0  0  0  0
 13 23  1  0  0  0  0
 14 20  1  0  0  0  0
 14 21  1  0  0  0  0
 14 22  2  0  0  0  0
 15 17  1  0  0  0  0
 15 31  1  0  0  0  0
 15 32  1  0  0  0  0
 16 20  1  0  0  0  0
 16 33  1  0  0  0  0
 16 34  1  0  0  0  0
 17 20  1  0  0  0  0
 17 35  1  0  0  0  0
 17 36  1  0  0  0  0
 18 37  1  0  0  0  0
 18 38  1  0  0  0  0
 18 39  1  0  0  0  0
 21 40  1  0  0  0  0
M  END
$$$$
