31
0 1 BrC14H10N5O
C                    -5.945715941921     4.764172235709     0.263306562415
C                    -2.443219780793    -2.302107232045     1.682629396484
C                    -3.051828062441    -3.491593406638     2.072244018456
C                    -4.913093455672    -2.281012937235     3.120659835600
C                    -3.667088112210     1.061820420943     2.289563557233
C                    -6.767063871174     4.851872287990     1.413195729277
C                    -4.304793647296    -1.071943771487     2.738434718283
C                    -4.674713743432     0.321544430071     2.903650018952
C                    -3.079255222018    -1.103719455376     2.023636107096
C                    -4.270839748297    -3.464194690336     2.780952863594
C                    -6.793918386925     3.937743205089     2.446700454480
C                    -8.182093040733     5.567073936416     2.853645794146
C                    -5.845375602946     0.769102226201     3.643643693782
C                    -9.206372577288     6.269178279540     3.668877874205
N                    -5.224953704658     4.606277530238    -0.643049838614
N                    -7.670065632653     5.883793344555     1.711535606365
N                    -6.500327330249     1.882607305933     3.580827993454
N                    -2.717688743789     0.211080391294     1.774504752210
N                    -6.048870053712     2.812007236611     2.668448476246
O                    -7.679585673550     4.368706681239     3.371056633117
Br                   -5.070902365642    -5.136497352307     3.280019282423
H                    -1.506542901454    -2.316508064860     1.132025303128
H                    -2.592431767758    -4.443624368037     1.829473643522
H                    -5.856924424601    -2.297948677059     3.655444837715
H                    -3.515008593317     2.131116083832     2.240006349584
H                    -6.265795228465     0.064700052750     4.358693780563
H                   -10.086819869404     5.635934068181     3.818814362982
H                    -8.809558113066     6.530876561285     4.655088666813
H                    -9.503640722355     7.179717773502     3.147811076888
H                    -1.894722056156     0.507981641926     1.268055829741
H                    -5.558275021178     2.471229538020     1.839020810044
