
  -OEChem-12102412483D

 27 28  0     0  0  0  0  0  0999 V2000
    0.6664    2.2498   -1.7818 C   0  0  0  0  0  0  0  0  0  0  0  0
    2.3761   -1.1549    0.3080 C   0  0  0  0  0  0  0  0  0  0  0  0
    1.1102   -0.7197    0.7029 C   0  0  0  0  0  0  0  0  0  0  0  0
    3.3891   -1.3533    1.2505 C   0  0  0  0  0  0  0  0  0  0  0  0
    1.8420   -0.7172    3.0167 C   0  0  0  0  0  0  0  0  0  0  0  0
    1.1735    2.3718   -0.4596 C   0  0  0  0  0  0  0  0  0  0  0  0
    0.8418   -0.4782    2.0609 C   0  0  0  0  0  0  0  0  0  0  0  0
    3.1042   -1.1353    2.6007 C   0  0  0  0  0  0  0  0  0  0  0  0
    0.4918    2.1149    0.7034 C   0  0  0  0  0  0  0  0  0  0  0  0
    2.5701    2.6348    1.1396 C   0  0  0  0  0  0  0  0  0  0  0  0
   -0.4679    0.0337    2.5231 C   0  0  0  0  0  0  0  0  0  0  0  0
    3.7489    2.7948    2.0287 C   0  0  0  0  0  0  0  0  0  0  0  0
    0.2202    2.1225   -2.8516 N   0  0  0  0  0  0  0  0  0  0  0  0
    2.4953    2.7158   -0.1524 N   0  0  0  0  0  0  0  0  0  0  0  0
   -1.2141    0.9725    2.0496 N   0  0  0  0  0  0  0  0  0  0  0  0
   -0.8098    1.7221    0.9545 N   0  0  0  0  0  0  0  0  0  0  0  0
    1.3697    2.3021    1.7375 O   0  0  0  0  0  0  0  0  0  0  0  0
    4.3675   -1.3746    3.7986 Cl  0  0  0  0  0  0  0  0  0  0  0  0
    2.5826   -1.3308   -0.7437 H   0  0  0  0  0  0  0  0  0  0  0  0
    0.3313   -0.5743   -0.0381 H   0  0  0  0  0  0  0  0  0  0  0  0
    4.3797   -1.6757    0.9460 H   0  0  0  0  0  0  0  0  0  0  0  0
    1.6465   -0.5416    4.0705 H   0  0  0  0  0  0  0  0  0  0  0  0
   -0.8943   -0.4393    3.4076 H   0  0  0  0  0  0  0  0  0  0  0  0
    3.5614    3.5469    2.8009 H   0  0  0  0  0  0  0  0  0  0  0  0
    3.9748    1.8464    2.5277 H   0  0  0  0  0  0  0  0  0  0  0  0
    4.6064    3.0979    1.4275 H   0  0  0  0  0  0  0  0  0  0  0  0
   -1.5236    2.3982    0.7096 H   0  0  0  0  0  0  0  0  0  0  0  0
  1  6  1  0  0  0  0
  1 13  3  0  0  0  0
  2  3  1  0  0  0  0
  2  4  2  0  0  0  0
  2 19  1  0  0  0  0
  3  7  2  0  0  0  0
  3 20  1  0  0  0  0
  4  8  1  0  0  0  0
  4 21  1  0  0  0  0
  5  7  1  0  0  0  0
  5  8  2  0  0  0  0
  5 22  1  0  0  0  0
  6  9  2  0  0  0  0
  6 14  1  0  0  0  0
  7 11  1  0  0  0  0
  8 18  1  0  0  0  0
  9 16  1  0  0  0  0
  9 17  1  0  0  0  0
 10 12  1  0  0  0  0
 10 14  2  0  0  0  0
 10 17  1  0  0  0  0
 11 15  2  0  0  0  0
 11 23  1  0  0  0  0
 12 24  1  0  0  0  0
 12 25  1  0  0  0  0
 12 26  1  0  0  0  0
 15 16  1  0  0  0  0
 16 27  1  0  0  0  0
M  END
$$$$
