
  -OEChem-12102412483D

 27 28  0     0  0  0  0  0  0999 V2000
   -0.5959    2.3273   -2.2028 C   0  0  0  0  0  0  0  0  0  0  0  0
    3.4241   -0.7517    2.6693 C   0  0  0  0  0  0  0  0  0  0  0  0
    2.0965   -0.4358    2.9564 C   0  0  0  0  0  0  0  0  0  0  0  0
    3.7732   -1.2996    1.4312 C   0  0  0  0  0  0  0  0  0  0  0  0
    1.4362   -1.2101    0.7540 C   0  0  0  0  0  0  0  0  0  0  0  0
   -1.7972    2.0009   -1.5258 C   0  0  0  0  0  0  0  0  0  0  0  0
    1.0902   -0.6445    1.9961 C   0  0  0  0  0  0  0  0  0  0  0  0
    2.7675   -1.5321    0.4905 C   0  0  0  0  0  0  0  0  0  0  0  0
   -1.9049    1.2300   -0.3883 C   0  0  0  0  0  0  0  0  0  0  0  0
   -3.8770    1.9088   -1.0177 C   0  0  0  0  0  0  0  0  0  0  0  0
   -0.3045   -0.3066    2.3519 C   0  0  0  0  0  0  0  0  0  0  0  0
   -5.3519    2.0228   -0.8824 C   0  0  0  0  0  0  0  0  0  0  0  0
    0.4331    2.5555   -2.7059 N   0  0  0  0  0  0  0  0  0  0  0  0
   -3.0844    2.4144   -1.9028 N   0  0  0  0  0  0  0  0  0  0  0  0
   -1.2422    0.2061    1.6301 N   0  0  0  0  0  0  0  0  0  0  0  0
   -0.9715    0.5263    0.3256 N   0  0  0  0  0  0  0  0  0  0  0  0
   -3.2114    1.1555   -0.0477 O   0  0  0  0  0  0  0  0  0  0  0  0
    3.1815   -2.2514   -1.0529 Cl  0  0  0  0  0  0  0  0  0  0  0  0
    4.1972   -0.5753    3.4118 H   0  0  0  0  0  0  0  0  0  0  0  0
    1.8340   -0.0158    3.9239 H   0  0  0  0  0  0  0  0  0  0  0  0
    4.8036   -1.5503    1.2009 H   0  0  0  0  0  0  0  0  0  0  0  0
    0.6755   -1.4451    0.0171 H   0  0  0  0  0  0  0  0  0  0  0  0
   -0.6025   -0.4841    3.3841 H   0  0  0  0  0  0  0  0  0  0  0  0
   -5.8250    1.0361   -0.9100 H   0  0  0  0  0  0  0  0  0  0  0  0
   -5.6206    2.4979    0.0667 H   0  0  0  0  0  0  0  0  0  0  0  0
   -5.7322    2.6272   -1.7064 H   0  0  0  0  0  0  0  0  0  0  0  0
   -0.0052    0.6665    0.0277 H   0  0  0  0  0  0  0  0  0  0  0  0
  1  6  1  0  0  0  0
  1 13  3  0  0  0  0
  2  3  1  0  0  0  0
  2  4  2  0  0  0  0
  2 19  1  0  0  0  0
  3  7  2  0  0  0  0
  3 20  1  0  0  0  0
  4  8  1  0  0  0  0
  4 21  1  0  0  0  0
  5  7  1  0  0  0  0
  5  8  2  0  0  0  0
  5 22  1  0  0  0  0
  6  9  2  0  0  0  0
  6 14  1  0  0  0  0
  7 11  1  0  0  0  0
  8 18  1  0  0  0  0
  9 16  1  0  0  0  0
  9 17  1  0  0  0  0
 10 12  1  0  0  0  0
 10 14  2  0  0  0  0
 10 17  1  0  0  0  0
 11 15  2  0  0  0  0
 11 23  1  0  0  0  0
 12 24  1  0  0  0  0
 12 25  1  0  0  0  0
 12 26  1  0  0  0  0
 15 16  1  0  0  0  0
 16 27  1  0  0  0  0
M  END
$$$$
