27
0 1 C12ClH9N4O
C                     0.666372048857     2.249781184017    -1.781772345019
C                     2.376143934038    -1.154926394147     0.308027503117
C                     1.110166405458    -0.719682472332     0.702905903721
C                     3.389149789337    -1.353334631695     1.250491845440
C                     1.841974470854    -0.717247325811     3.016685044040
C                     1.173543118299     2.371849660974    -0.459645283144
C                     0.841838845624    -0.478230584753     2.060866422671
C                     3.104227004629    -1.135275620683     2.600724789583
C                     0.491849103147     2.114864003921     0.703413501085
C                     2.570084127309     2.634772072484     1.139591960437
C                    -0.467857081558     0.033710900824     2.523121628985
C                     3.748925420758     2.794813321809     2.028749297770
N                     0.220181524928     2.122531924582    -2.851627189466
N                     2.495268958012     2.715762808622    -0.152382414637
N                    -1.214097666901     0.972472881251     2.049605081827
N                    -0.809754990094     1.722122389143     0.954455079867
O                     1.369711856724     2.302144147447     1.737501596537
Cl                    4.367540803300    -1.374566263866     3.798567503141
H                     2.582577128110    -1.330786734713    -0.743690019981
H                     0.331316798538    -0.574337596003    -0.038131297985
H                     4.379677059285    -1.675688967486     0.945969945548
H                     1.646536007564    -0.541600084908     4.070454943907
H                    -0.894290747867    -0.439303711165     3.407649348363
H                     3.561365993376     3.546941924389     2.800885244002
H                     3.974826689862     1.846400995888     2.527700948646
H                     4.606429753354     3.097870565017     1.427504384714
H                    -1.523553625689     2.398180926298     0.709555052415
