25   
torsion grid (-165,)
C        1.3148481624    1.2380971938   -1.0799208129
C        0.5897649279   -1.2694716229    0.5378122209
C       -0.5957466166   -0.7782498367    1.3532124064
C       -1.1352472546    0.7934094308   -0.3040834306
C        0.0369477952    0.3572975718   -1.2065296101
C        2.3912957613    3.3826538421   -0.7350097762
C        0.1307244139    3.3496258678   -1.7046854607
N        0.3189244224   -1.0463305728   -0.8934796894
N        1.1899403868    2.6050142792   -1.0295826093
O        2.4126312290    0.6923710965   -0.9415930943
O       -0.8542043194    0.6013215036    1.0750401766
H        1.5019186733   -0.7587926688    0.8756754623
H        0.7200016164   -2.3461178809    0.6948258266
H       -1.4921673824   -1.3734608579    1.1206239337
H       -0.3920381638   -0.8434695403    2.4249842854
H       -1.3806118694    1.8479719745   -0.4113663705
H       -2.0143625567    0.1983540484   -0.5951728249
H       -0.3105579727    0.4041568287   -2.2476648872
H        2.9835846335    3.5753913501   -1.6397344607
H        2.0905024701    4.3393159844   -0.2970484325
H        3.0125238555    2.8358690897   -0.0269707716
H       -0.4351229049    3.9703881158   -0.9995298158
H        0.5724737928    4.0086351420   -2.4627724955
H       -0.5601946123    2.6839016788   -2.2196490425
H        1.1496945291   -1.3210218345   -1.4137485014
25   
torsion grid (-150,)
C        1.4452204274    1.1339492880   -1.1963256328
C        0.4340026431   -0.8605924718    0.9064063620
C       -0.9929423696   -0.4274884732    1.2232986109
C       -1.1831892152    0.5394060435   -0.9167525909
C        0.2456704059    0.1357125781   -1.2764359312
C        2.5066429710    3.2820487307   -1.4998346854
C        0.1783703530    3.2600691352   -0.6842931600
N        0.5539073652   -1.0938113033   -0.5401156307
N        1.3010482689    2.4949337267   -1.2322410795
O        2.5660192824    0.6156188779   -1.2839823387
O       -1.3544411544    0.7473275815    0.4843353451
H        1.1351631703   -0.0903150544    1.2715007506
H        0.6553648369   -1.7935697660    1.4358821008
H       -1.6916705945   -1.2402655874    0.9772050775
H       -1.1037289315   -0.1682354632    2.2791449253
H       -1.4975343658    1.4545309096   -1.4187377643
H       -1.8422838176   -0.2747642007   -1.2506268720
H        0.2308917424   -0.1166402873   -2.3459332752
H        2.2137574396    4.2154930594   -1.9899014122
H        3.0447092264    3.5211696658   -0.5732308581
H        3.1759568209    2.7195509667   -2.1489609167
H       -0.4057107989    2.6663932649    0.0150163220
H        0.5835458824    4.1112731252   -0.1277571004
H       -0.4712480424    3.6553552111   -1.4755161577
H        1.5180014710   -1.3402893737   -0.7585118628
25   
torsion grid (-135,)
C        1.4333948283    1.1088381142   -1.3343078878
C        0.4418846399   -0.7521484224    0.9339178111
C       -1.0072130263   -0.3691779093    1.2094320171
C       -1.1957191649    0.5027733003   -0.9830068558
C        0.2415071804    0.1006229224   -1.3186583190
C        2.5017873140    3.2747188082   -1.4666049661
C        0.2070031221    3.1988581175   -0.5792942756
N        0.5762049977   -1.0665304940   -0.4929378271
N        1.3187563508    2.4614186855   -1.1776752017
O        2.5286297471    0.5938753073   -1.6031349753
O       -1.4043757023    0.7503559988    0.4077758005
H        1.1034420277    0.0701302851    1.2597465938
H        0.7001779076   -1.6417054454    1.5183506319
H       -1.6627712811   -1.2251137518    0.9932083931
H       -1.1496144802   -0.0617698065    2.2484999853
H       -1.5067273359    1.4038626233   -1.5143756123
H       -1.8433102500   -0.3250583036   -1.3050848744
H        0.2224679491   -0.2372294936   -2.3627421318
H        2.1810664600    4.2169862952   -1.9223468117
H        3.0602333991    3.4998118818   -0.5487955460
H        3.1583550015    2.7373675501   -2.1483702020
H       -0.4094468736    2.5591775611    0.0461142678
H        0.6227672741    3.9825260363    0.0626774092
H       -0.4123001147    3.6859827793   -1.3439271035
H        1.5393230463   -1.3217124563   -0.7048280943
25   
torsion grid (-120,)
C        1.3968870078    1.1023208036   -1.4653361403
C        0.4609680463   -0.6616026101    0.9388081765
C       -1.0030685277   -0.3329347043    1.2035524978
C       -1.2234625103    0.4743962738   -1.0172328974
C        0.2185231618    0.0853365479   -1.3592060540
C        2.5178966690    3.2536082475   -1.4007082801
C        0.2325263307    3.1492331766   -0.5128437300
N        0.5968522436   -1.0260036691   -0.4742562770
N        1.3500215542    2.4207551982   -1.1067897336
O        2.4396411109    0.6022007197   -1.9146113046
O       -1.4441852293    0.7434561550    0.3682113326
H        1.0871941052    0.1998333798    1.2313470381
H        0.7589175784   -1.5173176912    1.5539893346
H       -1.6197829155   -1.2231601325    1.0130539329
H       -1.1610803442    0.0004821096    2.2323466539
H       -1.5463955044    1.3637995886   -1.5624710164
H       -1.8601737335   -0.3671266351   -1.3251464038
H        0.1824664867   -0.3156861372   -2.3785490902
H        2.2053999840    4.1360849869   -1.9714617305
H        2.9892427269    3.5913080726   -0.4695037501
H        3.2375345803    2.6767012119   -1.9771831866
H       -0.4130561132    2.4963938504    0.0673166662
H        0.6409100188    3.9027382008    0.1683217812
H       -0.3561583588    3.6752451559   -1.2769801411
H        1.5579046493   -1.2832019159   -0.6910354521
25   
torsion grid (-105,)
C        1.3330302244    1.1194810061   -1.5855743987
C        0.4878462965   -0.5728312440    0.9330774961
C       -0.9879403624   -0.3031728547    1.1996371612
C       -1.2602225149    0.4400361397   -1.0410537577
C        0.1874364290    0.0796946137   -1.3981507121
C        2.5431835914    3.2034167228   -1.3292676806
C        0.2542324883    3.1126140504   -0.4542113193
N        0.6249651663   -0.9740515083   -0.4691708734
N        1.3721901356    2.3742212690   -1.0352443649
O        2.3034715378    0.6737919599   -2.2167269458
O       -1.4815944133    0.7297789946    0.3400476259
H        1.0776121942    0.3227016872    1.1951646525
H        0.8269417603   -1.3974206303    1.5691460157
H       -1.5644457416   -1.2253969463    1.0373458962
H       -1.1545347831    0.0503406513    2.2203614410
H       -1.6084990742    1.3124276159   -1.5990998842
H       -1.8791174043   -0.4219995157   -1.3278230676
H        0.1391254057   -0.3732602608   -2.3934020091
H        2.3003285455    3.9641519618   -2.0831730691
H        2.8654911655    3.7121058447   -0.4145998431
H        3.3460825806    2.5741123535   -1.7063026986
H       -0.4426927072    2.4551349866    0.0565404545
H        0.6531430935    3.8140183016    0.2851843532
H       -0.2770082866    3.6993468319   -1.2171795643
H        1.5864976898   -1.2223818471   -0.6918926822
25   
torsion grid (-90,)
C        1.2583815328    1.1540811414   -1.6916444316
C        0.4922884908   -0.4693568712    0.9438488457
C       -1.0001007452   -0.2728652272    1.1814635513
C       -1.2868104301    0.3821693127   -1.0854223235
C        0.1769801800    0.0664409124   -1.4259789624
C        2.5540969019    3.1516327801   -1.3232206399
C        0.3043866401    3.0673904745   -0.3432840526
N        0.6703568712   -0.9084153507   -0.4413607829
N        1.3844280468    2.3319186437   -0.9959275162
O        2.1393904852    0.8074161157   -2.4920173837
O       -1.5355334209    0.7048163959    0.2836831714
H        1.0305799106    0.4631549620    1.1837613943
H        0.8645711470   -1.2547338066    1.6104061500
H       -1.5230614199   -1.2299446002    1.0405230085
H       -1.2007996927    0.1020308788    2.1883159157
H       -1.6589765920    1.2261897067   -1.6718726819
H       -1.8725184682   -0.5093337339   -1.3509842895
H        0.1464744651   -0.4438408232   -2.3927006114
H        2.3704948401    3.7791882474   -2.2056352602
H        2.7761579679    3.7997804317   -0.4709477138
H        3.4069939385    2.5087184031   -1.5340478121
H       -0.4633872156    2.4019184959    0.0384603335
H        0.7179842152    3.6229700674    0.5046386658
H       -0.1493431642    3.7946569417   -1.0322921296
H        1.6424885323   -1.1291233149   -0.6441322190
25   
torsion grid (-75,)
C        1.1982567310    1.1833666780   -1.7842040176
C        0.4524309103   -0.3607130363    0.9864252763
C       -1.0577094170   -0.2302476420    1.1475712807
C       -1.2872882284    0.3071097435   -1.1525719415
C        0.2012351087    0.0407809248   -1.4317135514
C        2.5476287951    3.1378098867   -1.3782771958
C        0.4022263928    2.9861819384   -0.2057571483
N        0.7207689779   -0.8346256358   -0.3717456458
N        1.4145005486    2.2918509148   -0.9971693605
O        1.9531444127    0.9449287658   -2.7369899921
O       -1.5978851191    0.6850142224    0.1890157966
H        0.9377452162    0.5998772467    1.2230268478
H        0.8258351465   -1.1077364247    1.6954486760
H       -1.5268012430   -1.2169152022    1.0208449772
H       -1.3225806346    0.1697627242    2.1295876045
H       -1.6704394742    1.1060300192   -1.7927227594
H       -1.8277011710   -0.6198301936   -1.3916528737
H        0.2192652477   -0.5365775802   -2.3597157179
H        2.2903382648    3.8078072519   -2.2094816124
H        2.8346876893    3.7428270433   -0.5135107894
H        3.3856799898    2.5163484811   -1.6908795832
H       -0.4223003943    2.3319300590    0.0594444143
H        0.8557610244    3.3602812719    0.7190722166
H        0.0069272543    3.8493598797   -0.7608016199
H        1.7117969887   -1.0077611532   -0.5196110554
25   
torsion grid (-60,)
C        1.3419531440   -1.7844104434    1.3240616362
C       -1.4107707906   -0.3220189735   -0.8721685819
C       -0.9846555990    1.1461898495   -0.8057422061
C        1.0031679845    0.5778964951    0.3459468795
C        0.6077502763   -0.9099414527    0.2958700206
C        1.6839028898   -2.6370085251    3.5827394015
C       -0.0766347923   -0.9633183077    3.2463677722
N       -0.8510683612   -1.1211294727    0.2309835754
N        1.0275703501   -1.7103115291    2.6625820388
O        2.2543506785   -2.5087698531    0.9195356894
O        0.4380189523    1.2723360767   -0.7652299099
H       -2.5032326702   -0.4035553928   -0.8491248571
H       -1.0644662146   -0.7580980884   -1.8160006606
H       -1.3129427143    1.7007716577   -1.6897713314
H       -1.4248556018    1.6247080398    0.0868449429
H        0.6765253803    1.0580014638    1.2817996143
H        2.0871436541    0.6908599468    0.2609544547
H        1.0009445405   -1.2866666973   -0.6513445283
H        2.1154020537   -2.0845588681    4.4253911577
H        0.9621723265   -3.3655879713    3.9746409586
H        2.4727708583   -3.1636473342    3.0497522460
H        0.2078303173   -0.6409102152    4.2528712582
H       -0.3014152251   -0.0626400911    2.6780276901
H       -0.9866340718   -1.5740070743    3.3325258360
H       -1.2946861406   -0.8183117538    1.0942692872
25   
torsion grid (-45,)
C        1.4005853382   -1.6931233082    1.3584051874
C       -1.4152313557   -0.3327910836   -0.8410206767
C       -0.9878134980    1.1364621175   -0.8380730031
C        1.0189196930    0.6001417076    0.2976703834
C        0.6199532789   -0.8877640472    0.3087554874
C        1.6546229680   -2.6882054489    3.5677419855
C       -0.1206870322   -1.0143090894    3.2566096532
N       -0.8411027730   -1.0859990840    0.2871411807
N        0.9586377665   -1.7841141549    2.6553312146
O        2.4370130248   -2.2547967790    0.9927641964
O        0.4348143726    1.2632774974   -0.8220537375
H       -2.5073923087   -0.4119888941   -0.7998445351
H       -1.0824467248   -0.8071139148   -1.7711388330
H       -1.3284597994    1.6572116767   -1.7378821103
H       -1.4157903575    1.6487010630    0.0417196075
H        0.7059952756    1.1029074601    1.2281453523
H        2.1011014222    0.7082648965    0.1915744090
H        0.9929383284   -1.3038068747   -0.6302879527
H        2.2442639883   -2.1257224483    4.3031102719
H        0.9230346463   -3.3049767382    4.1022661523
H        2.3240142261   -3.3260000380    2.9937768392
H        0.1555338467   -0.7636393043    4.2857908077
H       -0.2787376763   -0.0690481254    2.7378552324
H       -1.0634915834   -1.5768568290    3.2865222034
H       -1.2621338421   -0.7308387713    1.1409030685
25   
torsion grid (-30,)
C        1.4146792505   -1.6076507171    1.4102482624
C       -1.4440568595   -0.3084821115   -0.7912396872
C       -0.9584704096    1.1375003384   -0.9146364988
C        1.0517884401    0.5964001371    0.2168860293
C        0.5944217326   -0.8686314932    0.3410384215
C        1.6964384893   -2.6958217816    3.5635879867
C       -0.2006454696   -1.1383726131    3.2838524614
N       -0.8742415558   -0.9881040761    0.3861829354
N        0.9211375835   -1.8387798134    2.6684311576
O        2.5309482551   -2.0143421931    1.0728337061
O        0.4673600075    1.2095145721   -0.9305477391
H       -2.5373292548   -0.3376276926   -0.7212498568
H       -1.1531848526   -0.8719284232   -1.6848047687
H       -1.2960269313    1.5985291833   -1.8476312149
H       -1.3507845687    1.7339810606   -0.0720582842
H        0.7743441903    1.1616798778    1.1243141423
H        2.1339837169    0.6550032101    0.0838566927
H        0.9108286956   -1.3657104614   -0.5798346675
H        2.2947506630   -2.1015269324    4.2667243379
H        1.0127586542   -3.3343216668    4.1327822224
H        2.3697913121   -3.3137289880    2.9723669386
H       -0.0039925165   -1.0399520178    4.3550029081
H       -0.3006395012   -0.1224425609    2.8952411239
H       -1.1478362695   -1.6758706132    3.1565777887
H       -1.2378815772   -0.5134427385    1.2078579863
25   
torsion grid (-15,)
C        1.2448610180   -1.6474368504    1.4635598287
C       -1.5812205591    0.0618525021   -0.5140721579
C       -0.7250999768    1.2006777957   -1.0666634885
C        1.2358921815    0.1873757699   -0.2140793499
C        0.4110880292   -0.9887330319    0.3527247167
C        1.8962290391   -1.9740305767    3.7577978419
C       -0.4986613501   -1.8736386864    3.2572335201
N       -0.9690099274   -0.5800814313    0.6642688835
N        0.8649820976   -1.5907578167    2.7904948185
O        2.3664201585   -2.0481129250    1.1410152783
O        0.5964616146    0.7505927351   -1.3567191466
H       -2.5757926707    0.4284854304   -0.2365054340
H       -1.7126049029   -0.7056372911   -1.2849111444
H       -1.1303855171    1.5900697531   -2.0054000853
H       -0.6859285430    2.0274648562   -0.3361296719
H        1.3609007221    0.9568571716    0.5672245302
H        2.2185971909   -0.1536210558   -0.5381178000
H        0.3454244958   -1.7381580083   -0.4438410355
H        1.5992877712   -1.5977839714    4.7411031940
H        2.0161959473   -3.0639421469    3.8145483861
H        2.8536824971   -1.5400150705    3.4714829883
H       -0.5414961096   -2.8902933645    3.6711655630
H       -0.7797089807   -1.1716062172    4.0509956987
H       -1.2099985174   -1.8014995520    2.4384208424
H       -0.9319744835    0.1178434676    1.4101856078
25   
torsion grid (0,)
C        1.2879063730   -1.5386942941    1.5135407471
C       -1.5852103615    0.1451357517   -0.4053135705
C       -0.7167053986    1.1865374338   -1.1087556937
C        1.2511938380    0.1191683337   -0.3473678588
C        0.4209821793   -0.9588735294    0.3823920404
C        1.8438670315   -1.9202593973    3.8225745646
C       -0.5176075822   -2.0358665158    3.1818977318
N       -0.9115763193   -0.4604862773    0.7563028988
N        0.8325983705   -1.5869509053    2.8165255499
O        2.4607701368   -1.8067638696    1.2397929372
O        0.5429439048    0.6285580945   -1.4748904563
H       -2.5283140818    0.5910093037   -0.0701946158
H       -1.8293763830   -0.6588805619   -1.1090822538
H       -1.1803482972    1.5366115983   -2.0359990323
H       -0.5622870689    2.0565465841   -0.4471275949
H        1.4837244225    0.9379688697    0.3546272667
H        2.1845003239   -0.2986099204   -0.7211075546
H        0.2651007881   -1.7754841430   -0.3340122711
H        1.4578341676   -1.6315082991    4.8044303024
H        2.0716375398   -2.9943260939    3.8308718490
H        2.7662059449   -1.3784105559    3.6156504134
H       -0.4916759840   -3.0972532080    3.4655412715
H       -0.8794232503   -1.4616063820    4.0422602705
H       -1.2036308515   -1.8993977955    2.3498085205
H       -0.7949682178    0.2577072643    1.4734169222
25   
torsion grid (15,)
C        1.3275455414   -1.4143420247    1.5745640120
C       -1.5820780527    0.2221442436   -0.3103862729
C       -0.7194514156    1.1549990754   -1.1584582048
C        1.2498801377    0.0545935452   -0.4518012286
C        0.4319168372   -0.9116728944    0.4278734535
C        1.7940901494   -1.9073109007    3.8837154545
C       -0.5140559250   -2.1670399772    3.0963722214
N       -0.8535758921   -0.3298491779    0.8432276432
N        0.8140275203   -1.5967653749    2.8413092812
O        2.5366742059   -1.5260250672    1.3542085817
O        0.4779733881    0.4986610859   -1.5668155971
H       -2.4735528321    0.7438608076    0.0551587975
H       -1.9191377060   -0.6183246154   -0.9285657159
H       -1.2353876197    1.4560853096   -2.0753024864
H       -0.4708432853    2.0643088632   -0.5842690425
H        1.5728062408    0.9175326867    0.1533366128
H        2.1340743553   -0.4359347346   -0.8549096414
H        0.1954448675   -1.7846500425   -0.1968989927
H        1.3407370655   -1.6956838626    4.8564124858
H        2.0976457637   -2.9623416109    3.8548655820
H        2.6841606325   -1.2936893992    3.7496828317
H       -0.4327129833   -3.2514791951    3.2566815263
H       -0.9379757914   -1.7185479623    4.0014996360
H       -1.1809559781   -1.9623180976    2.2629679817
H       -0.6691079997    0.4196608056    1.5113134649
25   
torsion grid (30,)
C        1.3570503271   -1.2842521250    1.6407856048
C       -1.5755095414    0.2934886956   -0.2310852840
C       -0.7295520399    1.1109628102   -1.2061058493
C        1.2361617823   -0.0083502371   -0.5210363684
C        0.4385548879   -0.8578318741    0.4825036765
C        1.7571576059   -1.9254303619    3.9302745537
C       -0.4953779857   -2.2668833121    3.0061604142
N       -0.8007394114   -0.1946487893    0.9208674799
N        0.8106975305   -1.6201836020    2.8574879812
O        2.5797720629   -1.2275406908    1.4785056370
O        0.4119211479    0.3681752695   -1.6257238386
H       -2.4206878310    0.8842078777    0.1393205293
H       -1.9841906963   -0.5791266087   -0.7548104459
H       -1.2896568930    1.3571472262   -2.1134149760
H       -0.4086013082    2.0528898484   -0.7286594357
H        1.6298293276    0.8881614121   -0.0174484009
H        2.0760701741   -0.5667919946   -0.9319824657
H        0.1316773212   -1.7725158826   -0.0468438786
H        1.2462529780   -1.8020136695    4.8895639439
H        2.1331306545   -2.9549722197    3.8586033720
H        2.6081657903   -1.2477171848    3.8747539196
H       -0.3755575212   -3.3582185535    3.0620579237
H       -0.9676190263   -1.9263873549    3.9339422590
H       -1.1465755089   -2.0001493145    2.1781450716
H       -0.5542326024    0.5938521210    1.5199209609
25   
torsion grid (45,)
C        1.3698948234   -1.1499070929    1.7134612507
C       -1.5705646636    0.3509700847   -0.1817296232
C       -0.7420334914    1.0574240260   -1.2543825981
C        1.2183379238   -0.0580401953   -0.5516905756
C        0.4384697802   -0.8033340751    0.5404680752
C        1.7386079652   -1.9694420940    3.9605237993
C       -0.4680384588   -2.3378725777    2.9265058220
N       -0.7634679314   -0.0684632197    0.9754565454
N        0.8234206209   -1.6559142395    2.8655464362
O        2.5786255916   -0.9136924479    1.6150357745
O        0.3605931794    0.2479931098   -1.6543262345
H       -2.3809071886    0.9983230586    0.1714772693
H       -2.0275721897   -0.5471901372   -0.6147055036
H       -1.3325332423    1.2447614834   -2.1564819432
H       -0.3758876504    2.0252729089   -0.8706698908
H        1.6523079922    0.8640176578   -0.1383187238
H        2.0298721704   -0.6689157475   -0.9474142050
H        0.0837265794   -1.7459187105    0.0975759288
H        1.2061811899   -1.8582702235    4.9100269911
H        2.1151008079   -2.9989474965    3.8867439469
H        2.5888846826   -1.2898491815    3.9304539963
H       -0.3373505844   -3.4257292707    2.8362828316
H       -0.9402505932   -2.1302245436    3.8925843846
H       -1.1293741005   -1.9688623954    2.1468587127
H       -0.4679019882    0.7576828050    1.4964999174
25   
torsion grid (60,)
C        1.3594185494   -1.0163145396    1.7925579860
C       -1.5688037863    0.3967903520   -0.1594958904
C       -0.7488953888    1.0010261693   -1.2998175557
C        1.2018567094   -0.0994694641   -0.5530610649
C        0.4289688505   -0.7520840151    0.5993417650
C        1.7356033764   -2.0182865525    3.9778288288
C       -0.4337649303   -2.3971205913    2.8544106224
N       -0.7450859058    0.0442547827    1.0089431631
N        0.8485269577   -1.6991268007    2.8636873762
O        2.5195798334   -0.5899835737    1.7706308868
O        0.3279838123    0.1395716846   -1.6603636958
H       -2.3554928743    1.0887627562    0.1610549840
H       -2.0562825247   -0.5195601067   -0.5139046382
H       -1.3556165351    1.1328249354   -2.2009603195
H       -0.3540721196    1.9865243325   -0.9986505807
H        1.6581583677    0.8408735937   -0.2146183991
H        1.9965351805   -0.7517328507   -0.9189498050
H        0.0426389119   -1.7123233947    0.2305144138
H        1.2295052062   -1.8025019693    4.9251625312
H        2.0125935235   -3.0810621738    3.9650321908
H        2.6393348835   -1.4167019767    3.8979768629
H       -0.3148607410   -3.4464816200    2.5493006879
H       -0.8497305583   -2.3843315073    3.8669248156
H       -1.1380443121   -1.8884110778    2.1990964134
H       -0.4119132616    0.9007350929    1.4531408058
25   
torsion grid (75,)
C        1.3120871879   -0.9125740912    1.8613160569
C       -1.5694393735    0.4542481860   -0.1585667041
C       -0.7388070600    0.9719508914   -1.3335616932
C        1.1814300462   -0.1484439738   -0.5413601560
C        0.3960461376   -0.7188409245    0.6459885160
C        1.7540618513   -2.0469527277    3.9750515204
C       -0.3924724742   -2.4737490710    2.8059362997
N       -0.7483349871    0.1365225967    1.0216650018
N        0.8834647672   -1.7654707212    2.8392766294
O        2.3874299817   -0.3058474244    1.9284068825
O        0.3083707235    0.0591001935   -1.6555988320
H       -2.3308589828    1.1874115805    0.1298190504
H       -2.0890894428   -0.4626344824   -0.4619975937
H       -1.3475576098    1.0759999704   -2.2369568136
H       -0.3107001253    1.9584212110   -1.0864203114
H        1.6678764370    0.7923308504   -0.2521078822
H        1.9530170713   -0.8443511801   -0.8784373661
H       -0.0178832426   -1.6845339116    0.3313689768
H        1.2842112821   -1.7177461908    4.9100074568
H        1.9488127701   -3.1243042538    4.0439625424
H        2.6948637721   -1.5160495827    3.8392874807
H       -0.2877477071   -3.4780264800    2.3728828063
H       -0.7583201483   -2.5842459668    3.8314365114
H       -1.1334658046   -1.8999548045    2.2504815795
H       -0.3788538454    1.0036117921    1.4139024253
25   
torsion grid (90,)
C        1.2239975390   -0.8327632051    1.9268433525
C       -1.5698289705    0.5440016661   -0.1796561126
C       -0.7073780608    0.9636477201   -1.3708155076
C        1.1474345404   -0.2170959735   -0.5166813290
C        0.3284420023   -0.6917696394    0.6919256696
C        1.7873325095   -2.0487206207    3.9632109127
C       -0.3324008738   -2.5822073507    2.7795496780
N       -0.7729345446    0.2357692797    1.0191109263
N        0.9169726303   -1.8249761108    2.8140968757
O        2.1894748894   -0.0753065297    2.0783339941
O        0.2914537041   -0.0179419705   -1.6446198896
H       -2.2917126630    1.3293588735    0.0703372469
H       -2.1374626495   -0.3555411923   -0.4467186519
H       -1.3051355953    1.0585396601   -2.2825116197
H       -0.2273532046    1.9355224128   -1.1656870485
H        1.6791007329    0.7098766438   -0.2655818323
H        1.8825721173   -0.9684781369   -0.8171641438
H       -0.1237362774   -1.6515740866    0.4221114573
H        1.3280611782   -1.6689517318    4.8851107220
H        1.9726807261   -3.1221630757    4.0811637063
H        2.7304683593   -1.5294287541    3.8002268821
H       -0.2139294694   -3.5442388340    2.2639136742
H       -0.6464018528   -2.7851635022    3.8078065384
H       -1.1232293702   -2.0016830078    2.3042746065
H       -0.3583461724    1.0971589511    1.3772022767
25   
torsion grid (105,)
C        1.0953409881   -0.7620136064    1.9979095911
C       -1.5567897658    0.6878460065   -0.2189021227
C       -0.6506342003    0.9544655803   -1.4215763362
C        1.0797392668   -0.3388707491   -0.4776153133
C        0.2135449164   -0.6589512886    0.7523773021
C        1.8129946078   -2.0030905897    3.9663744908
C       -0.2352679565   -2.7297421338    2.7538514201
N       -0.8037968581    0.3779317394    1.0061501095
N        0.9208119030   -1.8366009356    2.8228213538
O        1.9473182768    0.1097116186    2.2071342302
O        0.2544484815   -0.1314232381   -1.6250625177
H       -2.2025906054    1.5513306990   -0.0247529214
H       -2.2062791718   -0.1671896795   -0.4425849977
H       -1.2296886358    1.0493076063   -2.3452694072
H       -0.0821564587    1.8870958466   -1.2679866275
H        1.6923117038    0.5496579559   -0.2750163473
H        1.7421730360   -1.1741544179   -0.7234407915
H       -0.3136354868   -1.5931338130    0.5418580115
H        1.3221450836   -1.6964259773    4.8990756510
H        2.1063658868   -3.0548342360    4.0524411767
H        2.6980010098   -1.3863522670    3.8177997388
H       -0.0509005966   -3.5958327426    2.1055823243
H       -0.4478510758   -3.0995604057    3.7603997927
H       -1.1224351903   -2.1980032478    2.4075014443
H       -0.3150279339    1.2147037611    1.3267131298
25   
torsion grid (120,)
C        0.9769825527   -0.6965120885    2.0671197457
C       -1.5083482409    0.8845636724   -0.2376991782
C       -0.6005306602    0.9142427757   -1.4679782490
C        0.9450738882   -0.5304138120   -0.4310773795
C        0.0742312401   -0.6072178349    0.8369090642
C        1.7765249979   -1.9111637894    4.0228821813
C       -0.0647935218   -2.8865707856    2.6497116244
N       -0.7848734476    0.5765203938    1.0034641319
N        0.9084085915   -1.8123500073    2.8517561258
O        1.7447398496    0.2442782779    2.3039380221
O        0.1349305496   -0.3063103107   -1.5839276393
H       -2.0193748619    1.8459296532   -0.1154801527
H       -2.2793689670    0.1176630594   -0.3824743452
H       -1.1793210299    1.0115365617   -2.3915131984
H        0.1005141804    1.7629364044   -1.4024509848
H        1.6831431865    0.2760050309   -0.3157906859
H        1.4749948350   -1.4718757383   -0.6073296109
H       -0.5839862710   -1.4725869268    0.7325132124
H        1.1843623273   -1.8910349483    4.9460055191
H        2.3493934030   -2.8449785554    3.9918138090
H        2.4612378189   -1.0648582255    4.0213345070
H        0.1109435394   -3.4323674501    1.7164063617
H        0.0352436492   -3.5969829326    3.4721301445
H       -1.0922210683   -2.5100957265    2.6564098327
H       -0.1797653162    1.3575147878    1.2591095260
25   
torsion grid (135,)
C        0.8758741137   -0.6262221986    2.1435223805
C       -1.4475114762    1.0371280152   -0.2717766976
C       -0.5619052078    0.8513146242   -1.5044326491
C        0.8045262688   -0.6845597444   -0.3560464587
C       -0.0429616560   -0.5383049957    0.9237200257
C        1.7261470550   -1.8674332848    4.0627792732
C        0.1082730944   -2.9721987214    2.5319903412
N       -0.7545174576    0.7442216018    0.9882175152
N        0.9134484704   -1.7952697727    2.8511963828
O        1.5649030537    0.3566947273    2.4394892459
O        0.0134448962   -0.4586861395   -1.5196176283
H       -1.8323270324    2.0619211180   -0.2290806192
H       -2.3112873411    0.3651458184   -0.3525049871
H       -1.1373457595    0.9419773448   -2.4306406435
H        0.2415696900    1.6063326560   -1.5144913354
H        1.6409507194    0.0296876073   -0.3169413509
H        1.2114778591   -1.6964008091   -0.4541064988
H       -0.8020533900   -1.3246710271    0.9186223224
H        1.0935817920   -2.0857713239    4.9317058774
H        2.4825483572   -2.6559624129    3.9717860828
H        2.2207605936   -0.9088371277    4.2089873485
H        0.1113298420   -3.1869775780    1.4615667806
H        0.5467720294   -3.8358337635    3.0370690130
H       -0.9297697758   -2.8687445844    2.8723036260
H       -0.0677875141    1.4673214561    1.2024650378
25   
torsion grid (150,)
C        0.7541146400   -0.5675331340    2.2296390236
C       -1.4180066939    1.1005477662   -0.3271845653
C       -0.5117350747    0.8028810663   -1.5219100845
C        0.7254403941   -0.7498827620   -0.2579793224
C       -0.1442045950   -0.4898638406    0.9926201559
C        1.7632139969   -1.8743733553    4.0223972970
C        0.1941048173   -2.9932390436    2.4655032603
N       -0.7829511683    0.8269717717    0.9651496262
N        0.9478696142   -1.7920228599    2.8130135789
O        1.3315357838    0.4521738609    2.6197250150
O       -0.0174532685   -0.5386600332   -1.4540369229
H       -1.7407293735    2.1472015403   -0.3439746739
H       -2.3187913662    0.4784371804   -0.4063124500
H       -1.0543858867    0.8798055189   -2.4688658534
H        0.3369648757    1.5063214432   -1.5440314826
H        1.5994123336   -0.0801768407   -0.2298111254
H        1.0810022760   -1.7842222933   -0.2974208371
H       -0.9413062507   -1.2388956585    1.0176577191
H        1.1372929508   -2.0886980160    4.8983303243
H        2.5070515110   -2.6721330307    3.9194194182
H        2.2679525457   -0.9215030364    4.1708075761
H        0.0492842752   -3.0827630359    1.3887328218
H        0.7655863841   -3.8665135376    2.7902020840
H       -0.7861121266   -3.0234835471    2.9599389589
H       -0.0770093696    1.5254953623    1.1941728425
25   
torsion grid (165,)
C        0.5614168697   -0.5234017453    2.3316847528
C       -1.3498849854    1.1750196157   -0.4133469488
C       -0.4097864190    0.7498130450   -1.5408986043
C        0.6257174724   -0.8338033654   -0.1405371833
C       -0.2812210250   -0.4450443893    1.0524346982
C        1.7854028133   -1.8480977003    3.9709683805
C        0.2862033632   -3.0254814696    2.4214592088
N       -0.8121683999    0.9084544615    0.9218028232
N        0.8957945883   -1.7628369891    2.8165534708
O        1.0227887155    0.5128320903    2.8184358670
O       -0.0337861969   -0.6221962915   -1.3835790445
H       -1.5808814981    2.2429794550   -0.4899778014
H       -2.2951048899    0.6272166602   -0.5210846766
H       -0.8934417177    0.8226223917   -2.5196202911
H        0.4945204632    1.3805774307   -1.5463578061
H        1.5480523004   -0.2322748637   -0.0948095846
H        0.9007316935   -1.8918023020   -0.1186344100
H       -1.1328727850   -1.1334736737    1.0764667653
H        1.2251124733   -2.1123097960    4.8774364169
H        2.5440855885   -2.6185160575    3.7932736850
H        2.2674659731   -0.8838945575    4.1209296643
H       -0.4086910992   -2.8989313921    1.5952078195
H        1.0595078907   -3.7387048672    2.1114430572
H       -0.2631176353   -3.4638863347    3.2649108624
H       -0.0877023292    1.5710121304    1.1916212629
25   
torsion grid (180,)
C        1.3357233083    1.2837217343   -0.9316444794
C        0.5495496753   -1.3570287408    0.5151109499
C       -0.6451831896   -0.8953123591    1.3341855563
C       -1.1044575268    0.8181942650   -0.1977195548
C        0.0656626378    0.4101392327   -1.1151483958
C        2.4040975930    3.4687581484   -0.8290080083
C        0.1480740978    3.3261957452   -1.7958417159
N        0.3300460679   -1.0137280468   -0.9028830259
N        1.2316454090    2.6421293036   -1.1016992221
O        2.4069351935    0.7563532638   -0.6209257452
O       -0.8535805695    0.5108885765    1.1650692452
H        1.4630485683   -0.9009605661    0.9169652657
H        0.6415234056   -2.4465576271    0.5899737153
H       -1.5530455436   -1.4385622471    1.0293554816
H       -0.4753838989   -1.0549925505    2.4018351211
H       -1.2984175015    1.8898873779   -0.2317845358
H       -2.0037297707    0.2855315287   -0.5438474031
H       -0.2784798267    0.5255120755   -2.1515495806
H        2.9652422695    3.6823155171   -1.7487649397
H        2.0796268029    4.4168938144   -0.3873695669
H        3.0593393611    2.9452737615   -0.1349682237
H       -0.3922328005    4.0040164882   -1.1228143568
H        0.5601666731    3.9225932333   -2.6194374909
H       -0.5637329874    2.6243414912   -2.2257832412
H        1.1730855690   -1.2587432366   -1.4176736234
