20   
torsion grid (-165,)
C       -0.2297741493    0.2373054717   -2.1305043583
C        0.2931814347    1.6346513880   -1.8631847609
C       -0.8517104959   -1.9489458839   -1.2744565587
C        2.2036286201   -0.5172720071    1.5230372507
N       -0.1072829585   -0.0930956193    0.1840003771
N       -0.0535980114   -0.7139480450   -1.0952764837
O       -0.7375114678   -0.0861838301   -3.1923312653
O        0.3753419721   -2.4179618013    1.4099174441
O       -0.2155109982   -0.2837080693    2.6680050959
S        0.4638894568   -0.9649829733    1.5647004084
H        1.2135768947    1.6213513979   -1.2770703649
H       -0.4439547529    2.2159228545   -1.2996987367
H        0.4531129202    2.1200798389   -2.8266546748
H       -0.5025790973   -2.7086359640   -0.5823307042
H       -1.9190916168   -1.7508067350   -1.1085513755
H       -0.7168637846   -2.2819622490   -2.3013256152
H        2.6885136167   -1.0578242633    2.3374394424
H        2.6080036385   -0.8322043199    0.5599244434
H        2.2830880234    0.5608165676    1.6585112218
H       -1.0694691058    0.1634790299    0.4438669178
20   
torsion grid (-150,)
C       -0.1414255698    0.2114553433   -2.0919707406
C        0.4001999222    1.5879564783   -1.7606112481
C       -0.9590806837   -1.9474245690   -1.2823329582
C        2.1767871713   -0.3946647397    1.3934244934
N       -0.2528734969   -0.1387629793    0.2344741896
N       -0.1553785580   -0.7316771055   -1.0423926034
O       -0.5136535238   -0.1025271928   -3.2120010893
O        0.4948441658   -2.4313450030    1.3539023695
O       -0.1586414091   -0.3829808997    2.7223500894
S        0.4850582275   -0.9801855975    1.5512009857
H        1.2821966699    1.5363114685   -1.1193469497
H       -0.3524143011    2.1765140152   -1.2270582480
H        0.6383876281    2.0868254103   -2.7004170599
H       -0.6905593603   -2.7013817224   -0.5468458568
H       -2.0322073012   -1.7214813306   -1.2209695397
H       -0.7372662278   -2.3048518929   -2.2858921568
H        2.7594727153   -0.9089544973    2.1593938054
H        2.5347012357   -0.6619336816    0.3981949961
H        2.1826246237    0.6837072157    1.5489187063
H       -1.2257817889    0.0214760683    0.5259965185
20   
torsion grid (-135,)
C       -0.0523588208    0.1657681754   -2.0632837255
C        0.4980550638    1.5280994514   -1.6872852095
C       -1.0689176420   -1.9474500151   -1.2851719439
C        2.1411210289   -0.2693904683    1.3082371257
N       -0.3639981262   -0.1731832952    0.2666179001
N       -0.2790395785   -0.7363747853   -1.0129514266
O       -0.2663501603   -0.1646957795   -3.2209490287
O        0.6126042151   -2.4219138446    1.2704191840
O       -0.1152844223   -0.4696342716    2.7461613289
S        0.5057442626   -0.9831110145    1.5234824281
H        1.3799239669    1.4473743360   -1.0479607576
H       -0.2452651674    2.1097005980   -1.1351475850
H        0.7545196652    2.0466940827   -2.6110197353
H       -0.7827275627   -2.7261179396   -0.5805061161
H       -2.1428395073   -1.7340036343   -1.1967966898
H       -0.8579520828   -2.2648830254   -2.3044919409
H        2.7860551520   -0.7449754046    2.0491904063
H        2.4856990325   -0.5042317729    0.3003987189
H        2.0741033233    0.8050850271    1.4755706302
H       -1.3281025011   -0.0666816315    0.6035041402
20   
torsion grid (-120,)
C        0.0249155261    0.1173415078   -2.0381195314
C        0.5831724237    1.4733823674   -1.6473645829
C       -1.1624825267   -1.9406969947   -1.2883248386
C        2.1029744077   -0.1668788871    1.2722776547
N       -0.4486599112   -0.1864311412    0.2864814488
N       -0.4191368273   -0.7079500127   -1.0040448937
O       -0.0336403409   -0.2578908677   -3.2020869381
O        0.7069843344   -2.4030245467    1.1565846418
O       -0.0931272340   -0.5658659140    2.7461065363
S        0.5177581558   -0.9878146733    1.4835030711
H        1.5151406247    1.3722756398   -1.0855595158
H       -0.1138491680    2.0320366981   -1.0191485732
H        0.7831254219    2.0199709495   -2.5687669484
H       -0.7527686401   -2.7651950339   -0.7048462307
H       -2.2228757697   -1.8024357197   -1.0404407509
H       -1.0676066371   -2.1462715520   -2.3530292684
H        2.7678051431   -0.5939622980    2.0253583607
H        2.4766733320   -0.3870924383    0.2720342414
H        1.9648990343    0.9018709725    1.4318276908
H       -1.3943112097   -0.1092932676    0.6755761301
20   
torsion grid (-105,)
C        0.0972086611    0.0560733385   -2.0067957770
C        0.6987958801    1.4012616800   -1.6430968296
C       -1.2402519533   -1.9205570166   -1.2930030291
C        2.0329927969   -0.0521225679    1.2948332992
N       -0.5245407661   -0.1846023462    0.3027628578
N       -0.5556814346   -0.6550212839   -1.0037275783
O        0.1625103448   -0.3948848536   -3.1443663207
O        0.7973185174   -2.3651573384    0.9980488543
O       -0.1169693336   -0.7136754071    2.7318913016
S        0.5102326570   -0.9983517893    1.4384960450
H        1.7672435225    1.2799343905   -1.4389560664
H        0.2299435204    1.8672681963   -0.7773499747
H        0.6083419362    2.0415541441   -2.5220222007
H       -0.6771349933   -2.7679708525   -0.8980507838
H       -2.2348818857   -1.8978309229   -0.8342435954
H       -1.3371260552   -2.0071384134   -2.3738351455
H        2.7130901364   -0.4595096610    2.0452812209
H        2.4421147673   -0.2010777772    0.2960245389
H        1.8132814649    0.9963675232    1.4922689727
H       -1.4514976442   -0.1284842543    0.7338579142
20   
torsion grid (-90,)
C       -0.0210484052    0.2048734327   -1.9302591107
C        0.2834060106   -0.2903447304   -3.3283145766
C       -0.6547421949   -2.1581446574   -1.2463827383
C        0.1914276700   -1.8351358844    2.3695017085
N       -0.7116083517   -0.2920339910    0.2897577955
N       -0.4888494587   -0.7304150021   -1.0217687433
O        0.0977575692    1.3814558180   -1.5971864982
O        0.7790505677    0.7396459750    2.1511832682
O        1.8418518733   -0.9299706694    0.5033508781
S        0.7176998338   -0.4668004524    1.3227835390
H       -0.6226525754   -0.6434038978   -3.8315839072
H        1.0072619609   -1.1102102324   -3.3117573072
H        0.6963700170    0.5457427673   -3.8919511960
H        0.2474268688   -2.7163925471   -0.9684357403
H       -1.4993620646   -2.5024252277   -0.6453361710
H       -0.8778103493   -2.3504666964   -2.2956565816
H        1.0030023073   -2.0139267197    3.0770690317
H       -0.7203940932   -1.5389109281    2.8874974442
H        0.0268096045   -2.7130933343    1.7447239321
H       -0.8683181124    0.7230457376    0.2429138421
20   
torsion grid (-75,)
C        0.0041802493    0.1861021336   -1.8733259089
C        0.3711421503   -0.3021637003   -3.2576089188
C       -0.7606569120   -2.1552162587   -1.2921964097
C        0.2747393652   -1.8023649644    2.3594192153
N       -0.8115945777   -0.3493151985    0.3012064334
N       -0.6389902067   -0.7250322875   -1.0366691467
O        0.2036748851    1.3335368064   -1.4918645007
O        0.7706078959    0.7812338407    2.0458485016
O        1.7672794450   -0.9025253673    0.3657645644
S        0.6895398869   -0.4449658704    1.2493555461
H       -0.5109938884   -0.6324595470   -3.8150537634
H        1.0727651531   -1.1399202828   -3.2008166052
H        0.8402966696    0.5255355023   -3.7886762944
H        0.1646177307   -2.6926200037   -1.0502521134
H       -1.5778818986   -2.5380004527   -0.6782804762
H       -1.0074257203   -2.3281604774   -2.3399600223
H        1.1354948579   -1.9424338024    3.0158174525
H       -0.6096436542   -1.5206250144    2.9305889297
H        0.0944986632   -2.6975362904    1.7639886478
H       -1.0443714165    0.6500199949    0.3128637378
20   
torsion grid (-60,)
C        0.0266115468    0.1590455595   -1.8190218878
C        0.4423162842   -0.3050685186   -3.1972092438
C       -0.8650895124   -2.1538949615   -1.3755934658
C        0.3638916830   -1.7419091974    2.3878483466
N       -0.8745877063   -0.4553194899    0.3106281557
N       -0.7500732119   -0.7301301768   -1.0598167786
O        0.2853748047    1.2706715275   -1.3801940266
O        0.7561580182    0.8321004232    1.9197394373
O        1.7157657560   -0.9099828383    0.2708349625
S        0.6747634424   -0.4328066490    1.1878346951
H       -0.4221087447   -0.5739586655   -3.8120434603
H        1.0972326404   -1.1788846680   -3.1269483925
H        0.9828163934    0.5120911636   -3.6739865454
H        0.0542084150   -2.7025034383   -1.1357672639
H       -1.6937742019   -2.5592913249   -0.7934795558
H       -1.0918005087   -2.2828872601   -2.4341565997
H        1.2555448012   -1.8112050915    3.0136051487
H       -0.5067135268   -1.4647082709    2.9823288721
H        0.1949562473   -2.6736541705    1.8479703445
H       -1.2182139419    0.5053848073    0.4075761266
20   
torsion grid (-45,)
C        0.0601702895    0.1271538021   -1.7819740223
C        0.4907069217   -0.3090988934   -3.1651977933
C       -0.9566769394   -2.1431520841   -1.4822038641
C        0.4368723590   -1.6699570289    2.4433929405
N       -0.8815197331   -0.5934013612    0.3163904605
N       -0.8081711875   -0.7374386587   -1.0839844443
O        0.3715125633    1.2031838631   -1.2967590735
O        0.6996554813    0.8820110816    1.8319665538
O        1.7183952154   -0.9046075011    0.2610596943
S        0.6702006479   -0.4192076225    1.1648581216
H       -0.3685858881   -0.4859683009   -3.8193077917
H        1.0782050618   -1.2306949280   -3.1155818495
H        1.1047616466    0.4869191397   -3.5852004836
H       -0.0552395750   -2.7295056314   -1.2653551045
H       -1.7991552291   -2.5589232189   -0.9288660611
H       -1.1796764739   -2.2058681550   -2.5475304798
H        1.3371031135   -1.6552707910    3.0606308200
H       -0.4391084642   -1.4031943216    3.0352202311
H        0.3097415540   -2.6386098025    1.9606074853
H       -1.3619126859    0.2887191726    0.5179835296
20   
torsion grid (-30,)
C        0.1125736896    0.0840079975   -1.7695852890
C        0.4879369431   -0.3078540222   -3.1835991628
C       -1.0365825250   -2.1223937594   -1.5889955198
C        0.4832991240   -1.5898060561    2.5302759865
N       -0.8127245215   -0.7509115787    0.3223797730
N       -0.8027923798   -0.7542455226   -1.0967753391
O        0.5063316447    1.1129415312   -1.2467673526
O        0.6440952654    0.9261017859    1.7785489038
O        1.7925255870   -0.8930566435    0.3397441715
S        0.6971808554   -0.4077317521    1.1826564323
H       -0.3909222317   -0.3821209261   -3.8311330362
H        1.0064361569   -1.2710698085   -3.1997271365
H        1.1526240794    0.4647539993   -3.5687580206
H       -0.1707426074   -2.7742778130   -1.4207778167
H       -1.8965524097   -2.5279424210   -1.0554870132
H       -1.2738284496   -2.0987087368   -2.6526229414
H        1.3445775275   -1.4627089164    3.1889153671
H       -0.4393647383   -1.3562236452    3.0626477508
H        0.4559838741   -2.5938181926    2.1082310914
H       -1.4327762062    0.0081532403    0.6209780203
20   
torsion grid (-15,)
C        0.1926884726    0.0280798228   -1.7765660077
C        0.4447960957   -0.2779876117   -3.2406028059
C       -1.0812320548   -2.1079990295   -1.6820106741
C        0.4724265240   -1.5093816273    2.6315327488
N       -0.6764786659   -0.9211011568    0.3120431748
N       -0.7340753564   -0.7945413637   -1.1099547571
O        0.6998247194    0.9853045268   -1.2166898947
O        0.5738890464    0.9588518026    1.7430111115
O        1.9269875619   -0.8656048428    0.5116864143
S        0.7414068807   -0.3995954231    1.2304302534
H       -0.4762054425   -0.2309439996   -3.8294050478
H        0.8826210057   -1.2719935098   -3.3714216003
H        1.1430034805    0.4728908850   -3.6090315596
H       -0.2558998184   -2.8249482084   -1.5970753951
H       -1.9428486090   -2.4969777831   -1.1382961049
H       -1.3643869671   -1.9926286217   -2.7280868813
H        1.2671727200   -1.2855807563    3.3457308934
H       -0.5004724301   -1.2981395863    3.0775363857
H        0.5365814255   -2.5380821690    2.2797343539
H       -1.4225199105   -0.3265325882    0.6875842615
20   
torsion grid (0,)
C       -0.3720565806    0.1250025292   -2.1368211695
C        0.0717713950   -0.5379346775   -3.4290304038
C       -0.3292347987   -2.1328773654   -1.1024771728
C       -1.3209162127    2.5841743601    0.3948127328
N       -1.1463728940   -0.3259806259    0.1502796000
N       -0.3561142936   -0.6637420825   -0.9954384398
O       -0.6689797544    1.3139206057   -2.1013721505
O       -2.5769453929    0.7729374650    1.7964089971
O       -3.2121846273    0.9938776363   -0.6703867432
S       -2.2174346816    1.0111269990    0.3935594354
H       -0.5947406662   -1.3589704709   -3.7094249939
H        1.0885632672   -0.9347911097   -3.3551470794
H        0.0433163754    0.2261270547   -4.2051346983
H       -0.0643670945   -2.5448358470   -0.1267806304
H       -1.3056129388   -2.5328364177   -1.3969153018
H        0.4369471480   -2.4383594461   -1.8136906529
H       -2.0137855298    3.2888054146    0.8599220643
H       -0.4345295653    2.4678889477    1.0200211431
H       -1.0696956018    2.8589105775   -0.6234367717
H       -0.5516113966   -0.3624557106    0.9797148514
20   
torsion grid (15,)
C       -0.2537188803    0.1393302230   -2.0823909430
C        0.0439912371   -0.5272758738   -3.4125147933
C       -0.4015286233   -2.1447207563   -1.1183197896
C       -1.4065932604    2.5953252575    0.3721997148
N       -0.9772303488   -0.3014428923    0.2177811881
N       -0.2739437948   -0.6832080563   -0.9600931960
O       -0.4040285676    1.3523499200   -1.9968844950
O       -2.5826201162    0.7352744397    1.7646575996
O       -3.0767544647    0.8056692533   -0.7498839583
S       -2.1600319549    0.9484875422    0.3764550988
H       -0.7264782167   -1.2585135243   -3.6742468727
H        1.0102856047   -1.0400102515   -3.4032382013
H        0.0642699945    0.2579835659   -4.1673986964
H       -0.1686321573   -2.6110177652   -0.1601978146
H       -1.4182946272   -2.4304726833   -1.4089690841
H        0.3169911661   -2.5042619468   -1.8541757798
H       -2.1779804346    3.2418632313    0.7959189751
H       -0.5381019623    2.5728826035    1.0318666685
H       -1.1382981737    2.8724203682   -0.6406302340
H       -0.3252862626   -0.2106748184    0.9987272297
20   
torsion grid (30,)
C       -0.1231944304    0.1519716374   -2.0113738776
C        0.0058962576   -0.4845405721   -3.3801089224
C       -0.4854227770   -2.1416153508   -1.1231741064
C       -1.4878285226    2.5728962475    0.3166022381
N       -0.8019300402   -0.2850332611    0.2890797262
N       -0.1926311271   -0.7098487997   -0.9158236204
O       -0.1010898812    1.3681420835   -1.8629598508
O       -2.5820690422    0.6811063519    1.7307103551
O       -2.9175285663    0.5955694599   -0.8141054991
S       -2.0918694558    0.8669441512    0.3621634127
H       -0.8620364404   -1.1097539573   -3.6087620280
H        0.9025056920   -1.1069917817   -3.4542442728
H        0.0711641868    0.3230094417   -4.1085173382
H       -0.2879394968   -2.6616491821   -0.1857787965
H       -1.5325704169   -2.3013538505   -1.4020499681
H        0.1738415132   -2.5505981970   -1.8887137314
H       -2.3339410563    3.1627241188    0.6755145280
H       -0.6523847119    2.6595850402    1.0124367040
H       -1.1955124501    2.8312498904   -0.6948886497
H       -0.0994430778   -0.0518256335    0.9926563135
20   
torsion grid (45,)
C       -0.0327562377    0.1579024700   -1.9670994852
C        0.0217800827   -0.4397951042   -3.3564040619
C       -0.5876999766   -2.1244106057   -1.1235723775
C       -1.5582093851    2.5295281276    0.2607593197
N       -0.6551356428   -0.2604637778    0.3339973061
N       -0.1682265360   -0.7296417311   -0.9000331233
O        0.0936035354    1.3621297164   -1.7705756657
O       -2.5274564082    0.6257353610    1.7592317123
O       -2.8377032948    0.4095299237   -0.7810442649
S       -2.0407970388    0.7900948559    0.3880378860
H       -0.9060112626   -0.9706471166   -3.5888952228
H        0.8519951899   -1.1446857533   -3.4604442539
H        0.1572800684    0.3792434871   -4.0620799753
H       -0.4147858963   -2.6734242603   -0.1982282544
H       -1.6500722943   -2.1855517420   -1.3821455059
H        0.0159330372   -2.5736655230   -1.9124027857
H       -2.4439458828    3.0797111641    0.5855516414
H       -0.7333878474    2.7099442721    0.9513312137
H       -1.2754031764    2.7554158008   -0.7619883484
H        0.0970151232    0.1130382716    0.9146668620
20   
torsion grid (60,)
C        0.0323027645    0.1632148424   -1.9508813032
C        0.0939924476   -0.4100393802   -3.3503389760
C       -0.7009189098   -2.0976764495   -1.1415012739
C       -1.6286479217    2.4827834534    0.2133457878
N       -0.5599678812   -0.2360864266    0.3468018329
N       -0.2117340634   -0.7304552039   -0.9165309769
O        0.2328377469    1.3530936833   -1.7176712121
O       -2.3836598973    0.6121290408    1.8862767881
O       -2.8650485317    0.2559573174   -0.6108001802
S       -2.0068507023    0.7335583664    0.4774022081
H       -0.8587695902   -0.8721841387   -3.6253695638
H        0.8762814579   -1.1700628939   -3.4382890899
H        0.3116201447    0.4083481081   -4.0360539092
H       -0.5558125024   -2.6547321088   -0.2161305882
H       -1.7643804864   -2.1020185749   -1.4005417377
H       -0.1213415543   -2.5754279182   -1.9320701349
H       -2.5297600360    3.0110431943    0.5326248139
H       -0.7872173714    2.7560906508    0.8510372018
H       -1.3965654840    2.6483815177   -0.8342958208
H        0.2296565274    0.2340707566    0.7916487505
20   
torsion grid (75,)
C        0.1393378034    0.1815323908   -1.8861973973
C        0.2272592293   -0.3276138005   -3.3103216098
C       -0.8577043288   -2.0437276863   -1.2057110574
C       -1.7382804713    2.3710482020    0.0414319497
N       -0.5268911041   -0.2625926730    0.3736763670
N       -0.3030981931   -0.7143410026   -0.9313049557
O        0.4777610052    1.3223488696   -1.5700449505
O       -2.0246408534    0.7726263172    2.1169697519
O       -2.9945799258    0.0358243595   -0.1465876001
S       -1.9565217652    0.6849566479    0.6585194242
H       -0.7411504009   -0.6941687212   -3.6634507988
H        0.9478075861   -1.1472463300   -3.3939916657
H        0.5558360814    0.4988759130   -3.9399411266
H       -0.7335657082   -2.6437660319   -0.3041781280
H       -1.9221820340   -1.9856132528   -1.4506585365
H       -0.3096747347   -2.5158373407   -2.0217738207
H       -2.6193257089    2.9127490480    0.3935676211
H       -0.8284381284    2.7876778636    0.4715425709
H       -1.6811507099    2.3568441466   -1.0436212159
H        0.2952185181    0.2204109173    0.7407377945
20   
torsion grid (90,)
C        0.2291604250    0.1837240697   -1.8101880743
C        0.3983884987   -0.2690789138   -3.2469010363
C       -0.9823375105   -1.9905746638   -1.2493524382
C       -1.8443335032    2.2432633993   -0.1252815947
N       -0.5681221853   -0.2852357987    0.3887186833
N       -0.4652795648   -0.6522600044   -0.9607292295
O        0.6987395671    1.2454486211   -1.3954751117
O       -1.7582129031    0.9829788461    2.2116718083
O       -3.1017670492   -0.0499689479    0.2837289084
S       -1.9441359167    0.6892855913    0.7915985452
H       -0.5690859686   -0.3865553056   -3.7446803501
H        0.9276370503   -1.2247151918   -3.3074739158
H        0.9781994535    0.4934241600   -3.7663106137
H       -0.3615574006   -2.7486029030   -0.7608019979
H       -2.0046013432   -2.0607315511   -0.8749867045
H       -0.9872012709   -2.1619521340   -2.3244122953
H       -2.7114483022    2.8230647510    0.1988019529
H       -0.9113747803    2.7438826790    0.1267158824
H       -1.8982405408    2.0324519160   -1.1916671101
H        0.2815894016    0.2021392171    0.6856873081
20   
torsion grid (105,)
C        0.3028191135    0.1698011934   -1.8052865465
C        0.4897091574   -0.3077256759   -3.2303108682
C       -1.0523377425   -1.9070740269   -1.2931075929
C       -1.9316906081    2.1854659640   -0.1303907891
N       -0.5524950528   -0.2365022616    0.3666272889
N       -0.5597658374   -0.5568340248   -1.0056836072
O        0.8765145047    1.1658797217   -1.3593902096
O       -1.6618469368    1.0231927089    2.2554051769
O       -3.0977855424   -0.1195940857    0.4659731248
S       -1.9348505557    0.6755281918    0.8624113133
H       -0.4612430686   -0.3349489301   -3.7707875441
H        0.9210310521   -1.3130654540   -3.2591172645
H        1.1668616092    0.3864340372   -3.7271719001
H       -0.3293889286   -2.6658329047   -0.9726194029
H       -1.9900128006   -2.0456745638   -0.7560639919
H       -1.2453850409   -2.0072845002   -2.3606672274
H       -2.8107639235    2.7533972984    0.1804279349
H       -1.0121712550    2.7340473488    0.0693217697
H       -2.0058641514    1.9113521366   -1.1821040965
H        0.2946821642    0.2994256634    0.5811970487
20   
torsion grid (120,)
C        0.4021168884    0.1269154478   -1.8357937091
C        0.5763498959   -0.3883684661   -3.2481050775
C       -1.1170814200   -1.8061877635   -1.3282212739
C       -2.0525504893    2.1657027736   -0.0694031847
N       -0.5153512859   -0.1524088905    0.3143327640
N       -0.5970205334   -0.4554252937   -1.0679624864
O        1.0897402758    1.0397563718   -1.3748500207
O       -1.5745418366    1.0066222145    2.2885353888
O       -3.0532289988   -0.2015984103    0.5834036893
S       -1.9133280628    0.6546029375    0.9120123553
H       -0.3635032816   -0.3623450999   -3.8067555135
H        0.9376904676   -1.4216369144   -3.2463228632
H        1.3119333304    0.2442783037   -3.7440730852
H       -0.3995136038   -2.5719324895   -1.0121358395
H       -2.0452453782   -1.9233171382   -0.7715938653
H       -1.3331648067   -1.9127161179   -2.3908299004
H       -2.9671939714    2.6656317718    0.2541979545
H       -1.1769822411    2.7858517294    0.1229332522
H       -2.1195045640    1.8881188485   -1.1213754964
H        0.3163957722    0.4284440219    0.4706695279
20   
torsion grid (135,)
C        0.5102524554    0.0665961204   -1.8747860436
C        0.6697523984   -0.4965928052   -3.2698824193
C       -1.1723509835   -1.6920027314   -1.3698998258
C       -2.1988748799    2.1604337152    0.0195760187
N       -0.4803584274   -0.0412828912    0.2420130277
N       -0.6044626177   -0.3472326183   -1.1455701439
O        1.2988971053    0.8836892380   -1.3996626941
O       -1.4780286184    0.9838290828    2.3067495450
O       -2.9867371626   -0.2814028531    0.6745092772
S       -1.8842126005    0.6409140426    0.9465269925
H       -0.2521156827   -0.4129687766   -3.8515118145
H        0.9494715248   -1.5543726716   -3.2316806299
H        1.4657946385    0.0606173572   -3.7631565514
H       -0.4807495878   -2.4712306119   -1.0298812166
H       -2.1045812178   -1.7663615780   -0.8151369027
H       -1.3868795506   -1.8167896484   -2.4307491396
H       -3.1351012763    2.5746389555    0.3976068698
H       -1.3711348933    2.8488242607    0.1932608270
H       -2.2903838881    1.9044625158   -1.0364696255
H        0.3378194213    0.5662197341    0.3668070654
20   
torsion grid (150,)
C        0.6165530244   -0.0013158932   -1.9080406710
C        0.7678811534   -0.6149193276   -3.2827568113
C       -1.2367898004   -1.5509064681   -1.4305793997
C       -2.3608067139    2.1293153615    0.1150406044
N       -0.4447276819    0.0898157249    0.1586821309
N       -0.5867753437   -0.2346888907   -1.2298890084
O        1.4826649167    0.7177929871   -1.4131498238
O       -1.3338191256    0.9985741166    2.3039999133
O       -2.8774415015   -0.3704408187    0.7973107069
S       -1.8303154387    0.6338044691    0.9803277189
H       -0.1191484531   -0.4588713315   -3.9019228242
H        0.9448446122   -1.6927953808   -3.2092122878
H        1.6322245841   -0.1499782275   -3.7564561755
H       -0.6208976807   -2.3573618571   -1.0165935489
H       -2.2020623941   -1.5479316169   -0.9325663572
H       -1.3934892803   -1.7048883011   -2.4970851412
H       -3.2995995378    2.4467942312    0.5721024494
H       -1.5911466850    2.8916850792    0.2410830891
H       -2.5089936567    1.8825065651   -0.9370717407
H        0.3678611594    0.7037974151    0.2754397930
20   
torsion grid (165,)
C        0.7251265832   -0.0699021186   -1.9276694679
C        0.8659479229   -0.7337610355   -3.2812934652
C       -1.3404364546   -1.3461161361   -1.5061162162
C       -2.5240998229    2.0225199624    0.1972405052
N       -0.3859446306    0.2304592119    0.0818149920
N       -0.5277386911   -0.1280793314   -1.3022641661
O        1.6470064266    0.5597026875   -1.4132611422
O       -1.1448726488    1.0810260253    2.2791110015
O       -2.6690226312   -0.4966285094    0.9725529368
S       -1.7311440239    0.6230442524    1.0224440673
H        0.0313470862   -0.4988116923   -3.9467056318
H        0.9249505616   -1.8220379808   -3.1777510364
H        1.7957096883   -0.3753561490   -3.7226979476
H       -0.9388772163   -2.1847394380   -0.9268209499
H       -2.3645379613   -1.1670138941   -1.1902551190
H       -1.3422608730   -1.5847960770   -2.5672297557
H       -3.4456010751    2.2377170312    0.7409416956
H       -1.8435639121    2.8739395371    0.2340024982
H       -2.7445795476    1.7373749340   -0.8327395387
H        0.4186073766    0.8514465570    0.1953593564
20   
torsion grid (180,)
C       -0.2534944604    0.2776605348   -2.1640786400
C        0.0673460006    1.7404109470   -1.9260277436
C       -0.5671283361   -1.9530883806   -1.2370544410
C        2.1638597264   -0.8423970043    1.5482178923
N        0.0238449045    0.0400447867    0.1594353633
N        0.0568584195   -0.6170134056   -1.1156363238
O       -0.7133434894   -0.1270738130   -3.2216874736
O       -0.0941358839   -2.2247383148    1.5875036690
O       -0.1148293120    0.0847313827    2.6382787544
S        0.3682337284   -0.8366247036    1.6094188527
H        0.9735041571    1.8716550667   -1.3328939659
H       -0.7524349764    2.2280737937   -1.3863515930
H        0.1639310979    2.2205857037   -2.9003171349
H        0.0356184643   -2.6986066027   -0.7251060397
H       -1.5776975859   -1.9601830630   -0.8122615529
H       -0.6209188728   -2.1780612212   -2.2995867290
H        2.5069761841   -1.4377880820    2.3955329157
H        2.4703628071   -1.3017029234    0.6070235725
H        2.5098655834    0.1882418415    1.6184214670
H       -0.9114280175    0.4219482459    0.3551868538
