
  -OEChem-12102412493D

 16 16  0     0  0  0  0  0  0999 V2000
    1.8920   -0.9944   -0.0976 C   0  0  0  0  0  0  0  0  0  0  0  0
    0.7969   -0.4665    0.5660 C   0  0  0  0  0  0  0  0  0  0  0  0
    2.9521   -1.5823    0.6065 C   0  0  0  0  0  0  0  0  0  0  0  0
    0.7152   -0.4976    1.9754 C   0  0  0  0  0  0  0  0  0  0  0  0
    1.8195   -1.0464    2.6834 C   0  0  0  0  0  0  0  0  0  0  0  0
    2.9223   -1.5980    1.9984 C   0  0  0  0  0  0  0  0  0  0  0  0
   -0.3680    0.0789    2.6052 N   0  0  0  0  0  0  0  0  0  0  0  0
    1.7965   -0.9858    4.1442 N   0  3  0  0  0  0  0  0  0  0  0  0
    2.8357   -0.6957    4.7356 O   0  5  0  0  0  0  0  0  0  0  0  0
    0.7150   -1.2176    4.7175 O   0  0  0  0  0  0  0  0  0  0  0  0
    4.5282   -2.6121    2.9572 I   0  0  0  0  0  0  0  0  0  0  0  0
    1.9237   -0.9696   -1.1834 H   0  0  0  0  0  0  0  0  0  0  0  0
   -0.0239   -0.0256    0.0061 H   0  0  0  0  0  0  0  0  0  0  0  0
    3.7838   -2.0279    0.0736 H   0  0  0  0  0  0  0  0  0  0  0  0
   -0.6064   -0.2851    3.5197 H   0  0  0  0  0  0  0  0  0  0  0  0
   -1.1575    0.2887    2.0087 H   0  0  0  0  0  0  0  0  0  0  0  0
  1  2  1  0  0  0  0
  1  3  2  0  0  0  0
  1 12  1  0  0  0  0
  2  4  2  0  0  0  0
  2 13  1  0  0  0  0
  3  6  1  0  0  0  0
  3 14  1  0  0  0  0
  4  5  1  0  0  0  0
  4  7  1  0  0  0  0
  5  6  2  0  0  0  0
  5  8  1  0  0  0  0
  6 11  1  0  0  0  0
  7 15  1  0  0  0  0
  7 16  1  0  0  0  0
  8  9  1  0  0  0  0
  8 10  2  0  0  0  0
M  CHG  2   8   1   9  -1
M  END
$$$$
