
  -OEChem-12102412493D

 20 21  0     0  0  0  0  0  0999 V2000
    2.2726   -0.5214    0.0035 C   0  0  0  0  0  0  0  0  0  0  0  0
    2.8822   -1.6935    2.0370 C   0  0  0  0  0  0  0  0  0  0  0  0
    1.0240   -0.2204    0.5611 C   0  0  0  0  0  0  0  0  0  0  0  0
    1.6394   -1.3949    2.5903 C   0  0  0  0  0  0  0  0  0  0  0  0
    3.2054   -1.2595    0.7429 C   0  0  0  0  0  0  0  0  0  0  0  0
    0.7093   -0.6557    1.8484 C   0  0  0  0  0  0  0  0  0  0  0  0
    5.8134   -2.0200   -1.7109 C   0  0  0  0  0  0  0  0  0  0  0  0
    4.3743   -1.9310   -2.1980 C   0  0  0  0  0  0  0  0  0  0  0  0
    4.8314   -1.1509   -0.9902 C   0  0  0  0  0  0  0  0  0  0  0  0
    4.4540   -1.6034    0.2913 O   0  0  0  0  0  0  0  0  0  0  0  0
   -1.1910   -0.1971    2.6906 I   0  0  0  0  0  0  0  0  0  0  0  0
    2.5001   -0.1861   -1.0014 H   0  0  0  0  0  0  0  0  0  0  0  0
    3.6175   -2.2636    2.5974 H   0  0  0  0  0  0  0  0  0  0  0  0
    0.3061    0.3513   -0.0184 H   0  0  0  0  0  0  0  0  0  0  0  0
    1.4006   -1.7360    3.5925 H   0  0  0  0  0  0  0  0  0  0  0  0
    6.1097   -2.9340   -1.2062 H   0  0  0  0  0  0  0  0  0  0  0  0
    6.5940   -1.5371   -2.2906 H   0  0  0  0  0  0  0  0  0  0  0  0
    4.1622   -1.3870   -3.1142 H   0  0  0  0  0  0  0  0  0  0  0  0
    3.7336   -2.7867   -2.0094 H   0  0  0  0  0  0  0  0  0  0  0  0
    4.9273   -0.0685   -1.0629 H   0  0  0  0  0  0  0  0  0  0  0  0
  1  3  1  0  0  0  0
  1  5  2  0  0  0  0
  1 12  1  0  0  0  0
  2  4  2  0  0  0  0
  2  5  1  0  0  0  0
  2 13  1  0  0  0  0
  3  6  2  0  0  0  0
  3 14  1  0  0  0  0
  4  6  1  0  0  0  0
  4 15  1  0  0  0  0
  5 10  1  0  0  0  0
  6 11  1  0  0  0  0
  7  8  1  0  0  0  0
  7  9  1  0  0  0  0
  7 16  1  0  0  0  0
  7 17  1  0  0  0  0
  8  9  1  0  0  0  0
  8 18  1  0  0  0  0
  8 19  1  0  0  0  0
  9 10  1  0  0  0  0
  9 20  1  0  0  0  0
M  END
$$$$
