26
0 1 C10H10IN3O2
C                     0.782033925494    -0.486416749823    -4.953915842028
C                     3.075806134919     0.271689570824    -4.841175923196
C                     0.973207236342    -0.860278533539    -6.283301971667
C                     3.269920697372    -0.096262319470    -6.175140113054
C                     1.833606284699     0.083672542740    -4.220452166352
C                     2.216660331658    -0.663792934384    -6.893187025630
C                     0.927941142569    -0.268905611853    -1.973003246223
C                     1.814875448774     2.421291941916    -1.233140669755
C                     0.809041008326     0.282519886246    -0.557584496401
C                     2.421919429669     1.652047673968    -2.396408685361
N                     1.639120171051     0.504491406007    -2.868429349087
N                     0.914908740853     1.735122061249    -0.477003708557
N                     0.455725746921     2.305726984086     0.738987396738
O                     0.410174511300    -1.344473733930    -2.247239011405
O                     2.158145503234     3.578701722379    -0.997835815782
I                     2.501934389490    -1.228158916117    -8.923033556471
H                    -0.181544423490    -0.645430151792    -4.487471361992
H                     3.910677383586     0.697042768396    -4.293978016541
H                     0.149762183095    -1.297807955852    -6.838180779699
H                     4.238930939296     0.056596640412    -6.638665688638
H                    -0.169239624563    -0.016990213326    -0.184053363773
H                     1.562968935133    -0.206801443201     0.075450462413
H                     2.527965225036     2.367047679418    -3.212485067660
H                     3.433770334539     1.350355390457    -2.092074659254
H                    -0.345513427160     2.897328404492     0.512111198000
H                     1.189181707193     2.944821408262     1.054699531932
