37
0 1 C15H15IN6
C                    -1.920164600106     5.492782361510     2.630159594579
C                    -1.417363597781     1.817016298681     6.086275468734
C                     0.707539850345     2.451938118217     5.106378675726
C                    -1.110054235765     0.470187535659     5.882098183570
C                     1.031072822538     1.106887639336     4.913314641163
C                    -0.522061227132     2.805351166278     5.674316481920
C                     0.107408088011     0.125204545152     5.286602188230
C                    -2.286567689248     3.188612999961     3.472122643386
C                    -2.562365299801     1.142002251505     2.784787318705
C                    -1.730241978428     4.543524865499     3.695909664321
C                    -2.354525653246    -0.156548494522     2.080748959878
C                    -2.316489760620    -0.033049852653     0.545051119379
C                    -1.039780470582     0.607609888296    -0.020402474983
C                    -0.795937358190     2.078634007903     0.351286030847
C                    -0.525439573822     2.328137353202     1.837878136526
N                    -2.062882773056     6.179467528487     1.698321236482
N                    -3.388614478962     2.732266099538     4.033297421950
N                    -3.562113186306     1.433068736002     3.599567322673
N                    -1.147574593368     4.997533448246     4.766677958594
N                    -1.729927811210     2.226517019222     2.660744968418
N                    -0.857951026955     4.203400986519     5.814823720732
I                     0.547982173739    -1.920777593695     4.906285469146
H                    -2.374358701800     2.103999154394     6.506945474451
H                     1.402222969933     3.227922024162     4.795031035412
H                    -1.828246058229    -0.292518832519     6.162249139239
H                     1.982678373086     0.833677229084     4.468929913298
H                    -1.427242404952    -0.625896585789     2.436551973310
H                    -3.177639372766    -0.806272046237     2.387821605052
H                    -2.407373459420    -1.040956228259     0.124937379454
H                    -3.197311673159     0.526844544608     0.208400114014
H                    -0.171821136209     0.013525324996     0.298514579653
H                    -1.072939137945     0.534731761596    -1.113519039427
H                     0.082145215600     2.434902194563    -0.199591260828
H                    -1.639231245348     2.703650503198     0.035418068840
H                     0.217116064848     1.619510588741     2.220634478969
H                    -0.122516467800     3.331756393258     1.986283742090
H                    -0.285162909450     4.715445640485     6.476497623186
