
  -OEChem-12102412493D

 18 18  0     0  0  0  0  0  0999 V2000
   -0.2116   -2.7765   -1.7241 C   0  0  0  0  0  0  0  0  0  0  0  0
   -0.4339   -1.4056   -1.7225 C   0  0  0  0  0  0  0  0  0  0  0  0
    0.2248   -0.9330   -0.5615 C   0  0  0  0  0  0  0  0  0  0  0  0
    0.3291    0.4532   -0.0239 C   0  0  0  0  0  0  0  0  0  0  0  0
    2.6007   -4.4404   -0.1852 C   0  0  0  0  0  0  0  0  0  0  0  0
    1.0621   -4.3479   -0.1952 C   0  0  0  0  0  0  0  0  0  0  0  0
    0.8059   -1.9523    0.0989 N   0  0  0  0  0  0  0  0  0  0  0  0
    0.5264   -3.0608   -0.6177 N   0  0  0  0  0  0  0  0  0  0  0  0
   -0.0914    1.4246   -0.6084 O   0  0  0  0  0  0  0  0  0  0  0  0
    3.1478   -5.4976   -0.3917 O   0  0  0  0  0  0  0  0  0  0  0  0
    0.9367    0.5499    1.1846 O   0  0  0  0  0  0  0  0  0  0  0  0
    3.2771   -3.3177    0.1129 O   0  0  0  0  0  0  0  0  0  0  0  0
   -1.5322   -0.3603   -3.1605 I   0  0  0  0  0  0  0  0  0  0  0  0
   -0.5267   -3.5440   -2.4172 H   0  0  0  0  0  0  0  0  0  0  0  0
    0.6900   -5.1180   -0.8684 H   0  0  0  0  0  0  0  0  0  0  0  0
    0.7039   -4.5670    0.8154 H   0  0  0  0  0  0  0  0  0  0  0  0
    1.1699   -0.3436    1.5009 H   0  0  0  0  0  0  0  0  0  0  0  0
    2.6531   -2.5749    0.2748 H   0  0  0  0  0  0  0  0  0  0  0  0
  1  2  2  0  0  0  0
  1  8  1  0  0  0  0
  1 14  1  0  0  0  0
  2  3  1  0  0  0  0
  2 13  1  0  0  0  0
  3  4  1  0  0  0  0
  3  7  2  0  0  0  0
  4  9  2  0  0  0  0
  4 11  1  0  0  0  0
  5  6  1  0  0  0  0
  5 10  2  0  0  0  0
  5 12  1  0  0  0  0
  6  8  1  0  0  0  0
  6 15  1  0  0  0  0
  6 16  1  0  0  0  0
  7  8  1  0  0  0  0
 11 17  1  0  0  0  0
 12 18  1  0  0  0  0
M  END
$$$$
