14
0 1 BrC6H3INO2
C                     1.305907441695     0.041038639915     1.767825927257
C                    -0.586824130259    -1.410521246487     1.529095910287
C                     1.604836324769    -0.591427733862     2.985396531274
C                     0.202286836622    -0.371565048787     1.026398520860
C                     0.728461559299    -1.617672788039     3.404280521571
C                     2.826298064068    -0.166227532005     3.735721221661
N                    -0.323016595779    -2.004063874114     2.696743560533
O                     3.391363030686    -0.792959307602     4.606027467547
O                     3.278529489822     1.047256368708     3.306906242028
Br                    0.928756699903    -2.535768334599     5.069817224270
I                    -0.281485365966     0.547161509846    -0.822158618156
H                     1.947488855883     0.841166245513     1.419006306721
H                    -1.455206959862    -1.774761329072     0.985037675525
H                     4.086435529450     1.227697399504     3.824752742014
