
  -OEChem-12122420533D

 26 27  0     0  0  0  0  0  0999 V2000
   -4.3016    1.9113   -1.7963 C   0  0  0  0  0  0  0  0  0  0  0  0
   -3.2649    2.8453   -3.7716 C   0  0  0  0  0  0  0  0  0  0  0  0
   -5.4817    2.5895   -2.0977 C   0  0  0  0  0  0  0  0  0  0  0  0
   -4.4477    3.5221   -4.0804 C   0  0  0  0  0  0  0  0  0  0  0  0
   -3.1813    2.0338   -2.6322 C   0  0  0  0  0  0  0  0  0  0  0  0
   -5.5542    3.3935   -3.2401 C   0  0  0  0  0  0  0  0  0  0  0  0
   -1.4833    1.2170   -1.0685 C   0  0  0  0  0  0  0  0  0  0  0  0
   -0.2587   -0.3043   -3.2497 C   0  0  0  0  0  0  0  0  0  0  0  0
   -0.1828    0.4394   -0.9080 C   0  0  0  0  0  0  0  0  0  0  0  0
   -1.1572    0.8980   -3.4961 C   0  0  0  0  0  0  0  0  0  0  0  0
   -1.9780    1.3146   -2.3536 N   0  0  0  0  0  0  0  0  0  0  0  0
    0.0423   -0.5593   -1.9470 N   0  0  0  0  0  0  0  0  0  0  0  0
    1.0306   -1.5319   -1.6433 N   0  0  0  0  0  0  0  0  0  0  0  0
   -2.0153    1.7135   -0.0833 O   0  0  0  0  0  0  0  0  0  0  0  0
    0.1770   -0.9663   -4.1902 O   0  0  0  0  0  0  0  0  0  0  0  0
   -7.3582    4.4200   -3.7004 I   0  0  0  0  0  0  0  0  0  0  0  0
   -4.2516    1.2945   -0.9084 H   0  0  0  0  0  0  0  0  0  0  0  0
   -2.4099    2.9697   -4.4280 H   0  0  0  0  0  0  0  0  0  0  0  0
   -6.3404    2.4831   -1.4428 H   0  0  0  0  0  0  0  0  0  0  0  0
   -4.4933    4.1463   -4.9667 H   0  0  0  0  0  0  0  0  0  0  0  0
    0.6508    1.1542   -0.8563 H   0  0  0  0  0  0  0  0  0  0  0  0
   -0.2348   -0.0656    0.0556 H   0  0  0  0  0  0  0  0  0  0  0  0
   -0.5138    1.7162   -3.8482 H   0  0  0  0  0  0  0  0  0  0  0  0
   -1.8142    0.6234   -4.3216 H   0  0  0  0  0  0  0  0  0  0  0  0
    1.6500   -1.5796   -2.4558 H   0  0  0  0  0  0  0  0  0  0  0  0
    0.5609   -2.4381   -1.6021 H   0  0  0  0  0  0  0  0  0  0  0  0
  1  3  1  0  0  0  0
  1  5  2  0  0  0  0
  1 17  1  0  0  0  0
  2  4  2  0  0  0  0
  2  5  1  0  0  0  0
  2 18  1  0  0  0  0
  3  6  2  0  0  0  0
  3 19  1  0  0  0  0
  4  6  1  0  0  0  0
  4 20  1  0  0  0  0
  5 11  1  0  0  0  0
  6 16  1  0  0  0  0
  7  9  1  0  0  0  0
  7 11  1  0  0  0  0
  7 14  2  0  0  0  0
  8 10  1  0  0  0  0
  8 12  1  0  0  0  0
  8 15  2  0  0  0  0
  9 12  1  0  0  0  0
  9 21  1  0  0  0  0
  9 22  1  0  0  0  0
 10 11  1  0  0  0  0
 10 23  1  0  0  0  0
 10 24  1  0  0  0  0
 12 13  1  0  0  0  0
 13 25  1  0  0  0  0
 13 26  1  0  0  0  0
M  END
$$$$
