37
0 1 C15H15IN6
C                     2.737101567428     2.876890538137     3.166895927075
C                     5.440041920101     1.386809757612     6.941205036694
C                     5.064536517259    -1.013595459255     6.959251556526
C                     6.298849944256     1.253885506518     8.031193311847
C                     5.923639483625    -1.144689217585     8.049990855852
C                     4.820369521956     0.250143549180     6.401435354591
C                     6.540167828291    -0.009137064767     8.584576194114
C                     2.156090962130     0.420646150408     3.120026780903
C                     0.901191673787    -0.924509423066     1.937838531556
C                     2.867333190246     1.555073796362     3.708616225170
C                    -0.040483644148    -1.435262096164     0.898638055072
C                     0.384621369313    -1.087875392262    -0.543162835171
C                     0.151221188166     0.375282015974    -0.947281527140
C                     0.935356455196     1.430926838324    -0.153410267284
C                     0.596534352155     1.495916811393     1.339902415429
N                     2.625228858916     3.942396736562     2.704446385723
N                     2.367853304095    -0.831375313510     3.527092370798
N                     1.584511400706    -1.673233833942     2.781886840204
N                     3.697424640466     1.482225922723     4.731267822121
N                     1.213258868104     0.404744682151     2.108752467522
N                     3.948836198786     0.327307942494     5.305835774256
I                     7.850829001163    -0.202214519264    10.247282327913
H                     5.246572594004     2.360466016693     6.505707093943
H                     4.583854233323    -1.894599858555     6.540882804912
H                     6.776647931931     2.135647745793     8.445676685627
H                     6.106951840550    -2.126062081629     8.474823570595
H                    -0.077869283817    -2.519020812525     1.031123814054
H                    -1.053392914022    -1.053897839041     1.086107712832
H                     1.440241299167    -1.353122246421    -0.677334706208
H                    -0.186635976107    -1.727254566695    -1.225249325184
H                     0.401826476213     0.486625388521    -2.008434057650
H                    -0.921426389011     0.598768326667    -0.863151865250
H                     2.015305460773     1.276793688512    -0.263033263553
H                     0.717407296082     2.417758477511    -0.576611888528
H                     0.930751094725     2.438967460898     1.760276494666
H                    -0.487001474765     1.439519702539     1.492602987280
H                     3.506707072907    -0.524131934600     4.918662262632
