14
0 1 C6ClH3INO2
C                     1.714845974950    -0.737742909525     2.853750354271
C                    -0.717916311641    -1.103427778189     1.692214007585
C                     0.211901605532    -0.289224879011     1.017862707240
C                     1.469948725680    -0.108351648020     1.632181673550
C                     0.697012663505    -1.519124243099     3.409675843074
C                    -0.176760984304     0.324751513848    -0.282763101384
N                    -0.493297948016    -1.709665340642     2.860630631696
O                     0.519912614195     1.044381333047    -0.970611865545
O                    -1.445130896594    -0.008682909009    -0.650921836466
Cl                    0.998166175822    -2.311055168876     4.941578535746
I                     3.061469316671     1.058452038660     0.854307176183
H                     2.663811830818    -0.630012012832     3.364766636996
H                    -1.696079123224    -1.266436616269     1.251689611598
H                    -1.599045009376     0.438706598185    -1.504912527635
