
  -OEChem-12102412493D

 15 15  0     0  0  0  0  0  0999 V2000
    1.5048   -0.2553    1.6162 C   0  0  0  0  0  0  0  0  0  0  0  0
    0.5191   -0.9130    0.8770 C   0  0  0  0  0  0  0  0  0  0  0  0
    1.6013   -0.4531    2.9941 C   0  0  0  0  0  0  0  0  0  0  0  0
   -0.3464   -1.7615    1.5770 C   0  0  0  0  0  0  0  0  0  0  0  0
    0.6755   -1.3267    3.5751 C   0  0  0  0  0  0  0  0  0  0  0  0
   -1.6375   -2.3260   -0.8774 C   0  0  0  0  0  0  0  0  0  0  0  0
   -0.2665   -1.9612    2.8979 N   0  0  0  0  0  0  0  0  0  0  0  0
   -0.4736   -2.6739   -1.4746 F   0  0  0  0  0  0  0  0  0  0  0  0
   -1.8322   -1.0129   -1.1424 F   0  0  0  0  0  0  0  0  0  0  0  0
   -2.6291   -3.0190   -1.4674 F   0  0  0  0  0  0  0  0  0  0  0  0
   -1.6951   -2.7278    0.8963 S   0  0  0  0  0  0  0  0  0  0  0  0
    0.7591   -1.6814    5.6827 I   0  0  0  0  0  0  0  0  0  0  0  0
    2.1989    0.4131    1.1138 H   0  0  0  0  0  0  0  0  0  0  0  0
    0.4416   -0.7618   -0.1914 H   0  0  0  0  0  0  0  0  0  0  0  0
    2.3565    0.0445    3.5912 H   0  0  0  0  0  0  0  0  0  0  0  0
  1  2  1  0  0  0  0
  1  3  2  0  0  0  0
  1 13  1  0  0  0  0
  2  4  2  0  0  0  0
  2 14  1  0  0  0  0
  3  5  1  0  0  0  0
  3 15  1  0  0  0  0
  4  7  1  0  0  0  0
  4 11  1  0  0  0  0
  5  7  2  0  0  0  0
  5 12  1  0  0  0  0
  6  8  1  0  0  0  0
  6  9  1  0  0  0  0
  6 10  1  0  0  0  0
  6 11  1  0  0  0  0
M  END
$$$$
