18
0 1 C7F3H5INO
C                     1.892342764290    -0.828058732384    -0.197942127677
C                     0.851263777501    -0.251096380374     0.530648609071
C                     2.779349588940    -1.749629978365     1.876138400289
C                     1.732574046521    -1.170334378197     2.622797728850
C                     2.838449597399    -1.573409082906     0.502162338349
C                     0.769847101335    -0.417103197856     1.914866303245
C                     3.778823827326    -3.331129355305    -0.760954405312
N                     1.650512546756    -1.403906589563     3.989681588475
O                     3.945097260162    -2.114088298923    -0.187051576013
F                     3.448245442668    -4.290190991584     0.135150229739
F                     4.938573544745    -3.672751890605    -1.336019186054
F                     2.815297824552    -3.336471118783    -1.711914460206
I                    -0.838379545404     0.513358421060     2.959103583672
H                     1.970654826555    -0.701038289175    -1.271670284718
H                     0.100387075907     0.338394268558     0.015063362683
H                     3.542374585300    -2.342398906576     2.372233504955
H                     1.095635723139    -0.740340111275     4.518563581763
H                     2.525454967102    -1.637687619549     4.442320575933
