
  -OEChem-12102412493D

 26 27  0     0  0  0  0  0  0999 V2000
   -1.2516   -6.9880    4.5764 C   0  0  0  0  0  0  0  0  0  0  0  0
   -0.7252   -6.1117    3.5992 C   0  0  0  0  0  0  0  0  0  0  0  0
   -1.7495   -5.1980    3.3248 C   0  0  0  0  0  0  0  0  0  0  0  0
   -0.0535   -2.2874    0.0860 C   0  0  0  0  0  0  0  0  0  0  0  0
   -2.0010   -4.0097    2.4589 C   0  0  0  0  0  0  0  0  0  0  0  0
   -0.0503   -1.1078   -0.8640 C   0  0  0  0  0  0  0  0  0  0  0  0
    1.2975   -2.9893    0.0414 C   0  0  0  0  0  0  0  0  0  0  0  0
    1.4470   -0.8486   -1.1128 C   0  0  0  0  0  0  0  0  0  0  0  0
    2.0687   -2.2594   -1.0797 C   0  0  0  0  0  0  0  0  0  0  0  0
   -2.5071   -6.6530    4.8924 N   0  0  0  0  0  0  0  0  0  0  0  0
   -1.0753   -2.5582    0.8107 N   0  0  0  0  0  0  0  0  0  0  0  0
   -2.7766   -5.5824    4.1304 N   0  0  0  0  0  0  0  0  0  0  0  0
   -0.9601   -3.6449    1.6465 N   0  0  0  0  0  0  0  0  0  0  0  0
   -3.0887   -3.4431    2.5170 O   0  0  0  0  0  0  0  0  0  0  0  0
    1.2080   -6.2331    2.7888 I   0  0  0  0  0  0  0  0  0  0  0  0
   -0.7713   -7.8334    5.0517 H   0  0  0  0  0  0  0  0  0  0  0  0
   -0.5438   -1.4004   -1.8006 H   0  0  0  0  0  0  0  0  0  0  0  0
   -0.6010   -0.2569   -0.4570 H   0  0  0  0  0  0  0  0  0  0  0  0
    1.8023   -2.8715    1.0104 H   0  0  0  0  0  0  0  0  0  0  0  0
    1.2043   -4.0670   -0.1372 H   0  0  0  0  0  0  0  0  0  0  0  0
    1.6395   -0.3216   -2.0513 H   0  0  0  0  0  0  0  0  0  0  0  0
    1.8596   -0.2397   -0.2995 H   0  0  0  0  0  0  0  0  0  0  0  0
    3.1488   -2.2499   -0.9107 H   0  0  0  0  0  0  0  0  0  0  0  0
    1.8899   -2.7632   -2.0364 H   0  0  0  0  0  0  0  0  0  0  0  0
   -3.6755   -5.1121    4.1671 H   0  0  0  0  0  0  0  0  0  0  0  0
   -0.0973   -4.1856    1.6742 H   0  0  0  0  0  0  0  0  0  0  0  0
  1  2  1  0  0  0  0
  1 10  2  0  0  0  0
  1 16  1  0  0  0  0
  2  3  2  0  0  0  0
  2 15  1  0  0  0  0
  3  5  1  0  0  0  0
  3 12  1  0  0  0  0
  4  6  1  0  0  0  0
  4  7  1  0  0  0  0
  4 11  2  0  0  0  0
  5 13  1  0  0  0  0
  5 14  2  0  0  0  0
  6  8  1  0  0  0  0
  6 17  1  0  0  0  0
  6 18  1  0  0  0  0
  7  9  1  0  0  0  0
  7 19  1  0  0  0  0
  7 20  1  0  0  0  0
  8  9  1  0  0  0  0
  8 21  1  0  0  0  0
  8 22  1  0  0  0  0
  9 23  1  0  0  0  0
  9 24  1  0  0  0  0
 10 12  1  0  0  0  0
 11 13  1  0  0  0  0
 12 25  1  0  0  0  0
 13 26  1  0  0  0  0
M  END
$$$$
