
  -OEChem-12102412493D

 26 27  0     0  0  0  0  0  0999 V2000
   -1.7686   -7.5589    3.6144 C   0  0  0  0  0  0  0  0  0  0  0  0
   -1.6226   -6.1674    3.4077 C   0  0  0  0  0  0  0  0  0  0  0  0
   -1.3413   -6.0213    2.0448 C   0  0  0  0  0  0  0  0  0  0  0  0
   -0.1270   -2.2984   -0.0240 C   0  0  0  0  0  0  0  0  0  0  0  0
   -1.0659   -4.9347    1.0664 C   0  0  0  0  0  0  0  0  0  0  0  0
   -0.1168   -1.0820   -0.9216 C   0  0  0  0  0  0  0  0  0  0  0  0
    1.1971   -3.0277   -0.1406 C   0  0  0  0  0  0  0  0  0  0  0  0
    1.3834   -0.7770   -1.0842 C   0  0  0  0  0  0  0  0  0  0  0  0
    2.0291   -2.1779   -1.1280 C   0  0  0  0  0  0  0  0  0  0  0  0
   -1.5924   -8.2350    2.4739 N   0  0  0  0  0  0  0  0  0  0  0  0
   -1.1195   -2.5076    0.7625 N   0  0  0  0  0  0  0  0  0  0  0  0
   -1.3384   -7.2919    1.5544 N   0  0  0  0  0  0  0  0  0  0  0  0
   -1.0457   -3.6612    1.5672 N   0  0  0  0  0  0  0  0  0  0  0  0
   -0.8513   -5.2294   -0.1142 O   0  0  0  0  0  0  0  0  0  0  0  0
   -1.8175   -4.7000    4.8947 I   0  0  0  0  0  0  0  0  0  0  0  0
   -1.9914   -8.0822    4.5351 H   0  0  0  0  0  0  0  0  0  0  0  0
   -0.5493   -1.3637   -1.8912 H   0  0  0  0  0  0  0  0  0  0  0  0
   -0.7192   -0.2679   -0.5127 H   0  0  0  0  0  0  0  0  0  0  0  0
    1.6510   -3.0708    0.8580 H   0  0  0  0  0  0  0  0  0  0  0  0
    1.0509   -4.0580   -0.4706 H   0  0  0  0  0  0  0  0  0  0  0  0
    1.6036   -0.1769   -1.9715 H   0  0  0  0  0  0  0  0  0  0  0  0
    1.7445   -0.2225   -0.2097 H   0  0  0  0  0  0  0  0  0  0  0  0
    3.0937   -2.1635   -0.8788 H   0  0  0  0  0  0  0  0  0  0  0  0
    1.9363   -2.5932   -2.1377 H   0  0  0  0  0  0  0  0  0  0  0  0
   -1.1681   -7.5269    0.5822 H   0  0  0  0  0  0  0  0  0  0  0  0
   -1.5108   -3.5167    2.4585 H   0  0  0  0  0  0  0  0  0  0  0  0
  1  2  1  0  0  0  0
  1 10  2  0  0  0  0
  1 16  1  0  0  0  0
  2  3  2  0  0  0  0
  2 15  1  0  0  0  0
  3  5  1  0  0  0  0
  3 12  1  0  0  0  0
  4  6  1  0  0  0  0
  4  7  1  0  0  0  0
  4 11  2  0  0  0  0
  5 13  1  0  0  0  0
  5 14  2  0  0  0  0
  6  8  1  0  0  0  0
  6 17  1  0  0  0  0
  6 18  1  0  0  0  0
  7  9  1  0  0  0  0
  7 19  1  0  0  0  0
  7 20  1  0  0  0  0
  8  9  1  0  0  0  0
  8 21  1  0  0  0  0
  8 22  1  0  0  0  0
  9 23  1  0  0  0  0
  9 24  1  0  0  0  0
 10 12  1  0  0  0  0
 11 13  1  0  0  0  0
 12 25  1  0  0  0  0
 13 26  1  0  0  0  0
M  END
$$$$
