18
0 1 C6H5IN2O4
C                     0.045184320018    -2.811107095592    -1.898756101036
C                    -0.325789436737    -1.472789248403    -1.908984726094
C                     0.047864274501    -0.983321500913    -0.633831587479
C                    -0.089502858494     0.386236852085    -0.062176909351
C                     0.330118783667    -4.879072504629     1.048822606249
C                     1.105980719557    -4.323017970671    -0.161444135153
N                     0.611537610891    -1.961338809930     0.099997336891
N                     0.605483860643    -3.058951205747    -0.684539083507
O                    -0.662802235269     1.287209843390    -0.629314361472
O                     0.258822499944    -6.071367451313     1.230095990464
O                     0.482312599546     0.553557971130     1.156055055052
O                    -0.201099071913    -3.981693811942     1.897089303950
I                    -1.222076320419    -0.482046576871    -3.515804343548
H                    -0.045901942526    -3.576858010767    -2.656446186764
H                     2.150978649890    -4.194685268522     0.137157203104
H                     1.061727084666    -5.069334614654    -0.952491842999
H                     0.920964433181    -0.276441889098     1.423303098669
H                    -0.011007356950    -3.066660693277     1.590635520939
