20
0 1 C9H9IO
C                     2.272552695412    -0.521404878054     0.003504190322
C                     2.882189104879    -1.693494918066     2.037038874650
C                     1.023953880900    -0.220404700125     0.561120945366
C                     1.639408974806    -1.394930548130     2.590302332204
C                     3.205410396987    -1.259521905283     0.742910944124
C                     0.709347620241    -0.655654411138     1.848375879946
C                     5.813395307396    -2.020012005219    -1.710904033364
C                     4.374346853038    -1.930987041371    -2.197955002074
C                     4.831392150959    -1.150938662857    -0.990232317155
O                     4.454029447236    -1.603401286134     0.291263211417
I                    -1.190973427144    -0.197062555776     2.690621197169
H                     2.500137711149    -0.186086944168    -1.001432564489
H                     3.617479510870    -2.263559503345     2.597373510307
H                     0.306087407169     0.351254920519    -0.018373831812
H                     1.400633279258    -1.736049513103     3.592473146528
H                     6.109695179878    -2.934039158006    -1.206241517907
H                     6.594021478631    -1.537055195920    -2.290561304989
H                     4.162190776769    -1.386974421685    -3.114157417162
H                     3.733580361170    -2.786737453145    -2.009372648685
H                     4.927276098140    -0.068466937223    -1.062893714037
