
  -OEChem-12102412493D

 37 39  0     0  0  0  0  0  0999 V2000
   -0.5887    4.8921    1.8223 C   0  0  0  0  0  0  0  0  0  0  0  0
   -4.6581    7.2563    3.0934 C   0  0  0  0  0  0  0  0  0  0  0  0
   -6.3965    5.6199    2.6421 C   0  0  0  0  0  0  0  0  0  0  0  0
   -5.6308    8.1665    3.5038 C   0  0  0  0  0  0  0  0  0  0  0  0
   -7.3683    6.5317    3.0535 C   0  0  0  0  0  0  0  0  0  0  0  0
   -5.0404    5.9782    2.6600 C   0  0  0  0  0  0  0  0  0  0  0  0
   -6.9831    7.8052    3.4840 C   0  0  0  0  0  0  0  0  0  0  0  0
   -2.2608    3.0481    1.4018 C   0  0  0  0  0  0  0  0  0  0  0  0
   -2.2450    0.9733    0.7112 C   0  0  0  0  0  0  0  0  0  0  0  0
   -1.9394    4.4092    1.8296 C   0  0  0  0  0  0  0  0  0  0  0  0
   -1.7685   -0.3474    0.2050 C   0  0  0  0  0  0  0  0  0  0  0  0
   -0.9423   -0.2482   -1.0942 C   0  0  0  0  0  0  0  0  0  0  0  0
    0.4881    0.2792   -0.9080 C   0  0  0  0  0  0  0  0  0  0  0  0
    0.6171    1.7131   -0.3724 C   0  0  0  0  0  0  0  0  0  0  0  0
    0.0558    1.9255    1.0380 C   0  0  0  0  0  0  0  0  0  0  0  0
    0.5158    5.2680    1.7991 N   0  0  0  0  0  0  0  0  0  0  0  0
   -3.5202    2.6266    1.2817 N   0  0  0  0  0  0  0  0  0  0  0  0
   -3.5085    1.3281    0.8442 N   0  0  0  0  0  0  0  0  0  0  0  0
   -2.8210    5.3111    2.2163 N   0  0  0  0  0  0  0  0  0  0  0  0
   -1.4119    2.0129    1.0557 N   0  0  0  0  0  0  0  0  0  0  0  0
   -4.1035    5.0251    2.2361 N   0  0  0  0  0  0  0  0  0  0  0  0
   -8.4597    9.1997    4.1124 I   0  0  0  0  0  0  0  0  0  0  0  0
   -3.6083    7.5265    3.1053 H   0  0  0  0  0  0  0  0  0  0  0  0
   -6.6926    4.6290    2.3064 H   0  0  0  0  0  0  0  0  0  0  0  0
   -5.3311    9.1544    3.8381 H   0  0  0  0  0  0  0  0  0  0  0  0
   -8.4149    6.2462    3.0361 H   0  0  0  0  0  0  0  0  0  0  0  0
   -1.1791   -0.8584    0.9783 H   0  0  0  0  0  0  0  0  0  0  0  0
   -2.6652   -0.9485    0.0377 H   0  0  0  0  0  0  0  0  0  0  0  0
   -0.8837   -1.2506   -1.5325 H   0  0  0  0  0  0  0  0  0  0  0  0
   -1.4844    0.3762   -1.8145 H   0  0  0  0  0  0  0  0  0  0  0  0
    1.0295   -0.3973   -0.2322 H   0  0  0  0  0  0  0  0  0  0  0  0
    1.0067    0.2240   -1.8719 H   0  0  0  0  0  0  0  0  0  0  0  0
    1.6795    1.9789   -0.3403 H   0  0  0  0  0  0  0  0  0  0  0  0
    0.1381    2.4267   -1.0531 H   0  0  0  0  0  0  0  0  0  0  0  0
    0.3478    1.1009    1.6976 H   0  0  0  0  0  0  0  0  0  0  0  0
    0.4560    2.8376    1.4688 H   0  0  0  0  0  0  0  0  0  0  0  0
   -4.4066    4.0899    1.9138 H   0  0  0  0  0  0  0  0  0  0  0  0
  1 10  1  0  0  0  0
  1 16  3  0  0  0  0
  2  4  1  0  0  0  0
  2  6  2  0  0  0  0
  2 23  1  0  0  0  0
  3  5  2  0  0  0  0
  3  6  1  0  0  0  0
  3 24  1  0  0  0  0
  4  7  2  0  0  0  0
  4 25  1  0  0  0  0
  5  7  1  0  0  0  0
  5 26  1  0  0  0  0
  6 21  1  0  0  0  0
  7 22  1  0  0  0  0
  8 10  1  0  0  0  0
  8 17  2  0  0  0  0
  8 20  1  0  0  0  0
  9 11  1  0  0  0  0
  9 18  2  0  0  0  0
  9 20  1  0  0  0  0
 10 19  2  0  0  0  0
 11 12  1  0  0  0  0
 11 27  1  0  0  0  0
 11 28  1  0  0  0  0
 12 13  1  0  0  0  0
 12 29  1  0  0  0  0
 12 30  1  0  0  0  0
 13 14  1  0  0  0  0
 13 31  1  0  0  0  0
 13 32  1  0  0  0  0
 14 15  1  0  0  0  0
 14 33  1  0  0  0  0
 14 34  1  0  0  0  0
 15 20  1  0  0  0  0
 15 35  1  0  0  0  0
 15 36  1  0  0  0  0
 17 18  1  0  0  0  0
 19 21  1  0  0  0  0
 21 37  1  0  0  0  0
M  END
$$$$
