26
0 1 C9H11IN4O
C                    -4.820416322388    -6.945749991587     1.400911070835
C                    -4.958280109362    -5.612550759137     0.940617535025
C                    -3.872575248557    -4.925734361504     1.473223501805
C                    -0.247041126072    -2.049573786287     1.079067719142
C                    -3.452956913753    -3.501795318831     1.362287399914
C                     0.480389357892    -0.723444911716     0.989476509220
C                     0.730281875986    -3.191551521011     0.827215700170
C                     1.779798233559    -1.073077925252     0.240949825409
C                     2.107115161482    -2.498627487015     0.728778340653
N                    -3.743363911152    -7.084813380964     2.177248080858
N                    -1.506746655847    -2.107268009027     1.302366224843
N                    -3.168860428677    -5.862880949119     2.186662773157
N                    -2.066839753858    -3.364599517541     1.371803720696
O                    -4.247435938928    -2.580797102976     1.301681305488
I                    -6.454359462827    -4.882594168382    -0.324842019026
H                    -5.461083688780    -7.794062976418     1.197859292680
H                    -0.131989131462     0.042541106310     0.508979977068
H                     0.710943962673    -0.370704987650     2.003635626873
H                     0.695742881621    -3.954897447475     1.614310094412
H                     0.477110644688    -3.691774525427    -0.118623866697
H                     1.596794132943    -1.081215003843    -0.840084586128
H                     2.588515739981    -0.363236593257     0.434280311281
H                     2.565526181115    -2.451663671040     1.723056191125
H                     2.800500114120    -3.030810921669     0.072252311147
H                    -2.414203554970    -5.683194006432     2.837502047394
H                    -1.519460551091    -4.170103674727     1.073859631119
