
  -OEChem-12102412493D

 18 18  0     0  0  0  0  0  0999 V2000
    0.0006   -2.7498   -1.7549 C   0  0  0  0  0  0  0  0  0  0  0  0
   -0.2458   -1.3883   -1.8001 C   0  0  0  0  0  0  0  0  0  0  0  0
    0.1914   -0.8987   -0.5407 C   0  0  0  0  0  0  0  0  0  0  0  0
    0.1785    0.4856    0.0080 C   0  0  0  0  0  0  0  0  0  0  0  0
    2.3835   -4.6551   -0.6539 C   0  0  0  0  0  0  0  0  0  0  0  0
    1.0349   -4.2664   -0.0245 C   0  0  0  0  0  0  0  0  0  0  0  0
    0.6690   -1.8968    0.2171 N   0  0  0  0  0  0  0  0  0  0  0  0
    0.5349   -3.0109   -0.5277 N   0  0  0  0  0  0  0  0  0  0  0  0
   -0.2537    1.4421   -0.5944 O   0  0  0  0  0  0  0  0  0  0  0  0
    2.8639   -4.1078   -1.6107 O   0  0  0  0  0  0  0  0  0  0  0  0
    0.6948    0.5960    1.2575 O   0  0  0  0  0  0  0  0  0  0  0  0
    2.9919   -5.7181   -0.0631 O   0  0  0  0  0  0  0  0  0  0  0  0
   -1.0813   -0.3628   -3.4187 I   0  0  0  0  0  0  0  0  0  0  0  0
   -0.1461   -3.5228   -2.4956 H   0  0  0  0  0  0  0  0  0  0  0  0
    0.3112   -5.0632   -0.2297 H   0  0  0  0  0  0  0  0  0  0  0  0
    1.1266   -4.1626    1.0595 H   0  0  0  0  0  0  0  0  0  0  0  0
    0.9876   -0.2891    1.5516 H   0  0  0  0  0  0  0  0  0  0  0  0
    2.4938   -6.0251    0.7145 H   0  0  0  0  0  0  0  0  0  0  0  0
  1  2  2  0  0  0  0
  1  8  1  0  0  0  0
  1 14  1  0  0  0  0
  2  3  1  0  0  0  0
  2 13  1  0  0  0  0
  3  4  1  0  0  0  0
  3  7  2  0  0  0  0
  4  9  2  0  0  0  0
  4 11  1  0  0  0  0
  5  6  1  0  0  0  0
  5 10  2  0  0  0  0
  5 12  1  0  0  0  0
  6  8  1  0  0  0  0
  6 15  1  0  0  0  0
  6 16  1  0  0  0  0
  7  8  1  0  0  0  0
 11 17  1  0  0  0  0
 12 18  1  0  0  0  0
M  END
$$$$
