
  -OEChem-12102412493D

 14 14  0     0  0  0  0  0  0999 V2000
    1.7148   -0.7377    2.8538 C   0  0  0  0  0  0  0  0  0  0  0  0
   -0.7179   -1.1034    1.6922 C   0  0  0  0  0  0  0  0  0  0  0  0
    0.2119   -0.2892    1.0179 C   0  0  0  0  0  0  0  0  0  0  0  0
    1.4699   -0.1084    1.6322 C   0  0  0  0  0  0  0  0  0  0  0  0
    0.6970   -1.5191    3.4097 C   0  0  0  0  0  0  0  0  0  0  0  0
   -0.1768    0.3248   -0.2828 C   0  0  0  0  0  0  0  0  0  0  0  0
   -0.4933   -1.7097    2.8606 N   0  0  0  0  0  0  0  0  0  0  0  0
    0.5199    1.0444   -0.9706 O   0  0  0  0  0  0  0  0  0  0  0  0
   -1.4451   -0.0087   -0.6509 O   0  0  0  0  0  0  0  0  0  0  0  0
    0.9982   -2.3111    4.9416 Cl  0  0  0  0  0  0  0  0  0  0  0  0
    3.0615    1.0585    0.8543 I   0  0  0  0  0  0  0  0  0  0  0  0
    2.6638   -0.6300    3.3648 H   0  0  0  0  0  0  0  0  0  0  0  0
   -1.6961   -1.2664    1.2517 H   0  0  0  0  0  0  0  0  0  0  0  0
   -1.5990    0.4387   -1.5049 H   0  0  0  0  0  0  0  0  0  0  0  0
  1  4  1  0  0  0  0
  1  5  2  0  0  0  0
  1 12  1  0  0  0  0
  2  3  1  0  0  0  0
  2  7  2  0  0  0  0
  2 13  1  0  0  0  0
  3  4  2  0  0  0  0
  3  6  1  0  0  0  0
  4 11  1  0  0  0  0
  5  7  1  0  0  0  0
  5 10  1  0  0  0  0
  6  8  2  0  0  0  0
  6  9  1  0  0  0  0
  9 14  1  0  0  0  0
M  END
$$$$
