
  -OEChem-12102412493D

 19 19  0     0  0  0  0  0  0999 V2000
    5.7868   -0.1288    1.6642 C   0  0  0  0  0  0  0  0  0  0  0  0
    5.7587    0.9782   -0.5015 C   0  0  0  0  0  0  0  0  0  0  0  0
    1.4351   -1.1982   -0.1335 C   0  0  0  0  0  0  0  0  0  0  0  0
    2.7200   -1.2773    1.9311 C   0  0  0  0  0  0  0  0  0  0  0  0
    0.3007   -0.8232    0.5844 C   0  0  0  0  0  0  0  0  0  0  0  0
    1.5745   -0.9368    2.6534 C   0  0  0  0  0  0  0  0  0  0  0  0
    2.6527   -1.3862    0.5345 C   0  0  0  0  0  0  0  0  0  0  0  0
    0.3738   -0.6944    1.9778 C   0  0  0  0  0  0  0  0  0  0  0  0
    5.0387    0.0954    0.4243 C   0  0  0  0  0  0  0  0  0  0  0  0
    6.3359   -0.3565    2.6628 N   0  0  0  0  0  0  0  0  0  0  0  0
    6.2864    1.6877   -1.2542 N   0  0  0  0  0  0  0  0  0  0  0  0
    3.7645   -1.8340   -0.2468 N   0  0  0  0  0  0  0  0  0  0  0  0
    4.8624   -1.2661   -0.3095 N   0  0  0  0  0  0  0  0  0  0  0  0
   -1.3600   -0.1542    3.0743 I   0  0  0  0  0  0  0  0  0  0  0  0
    1.3889   -1.3342   -1.2101 H   0  0  0  0  0  0  0  0  0  0  0  0
    3.6459   -1.4847    2.4584 H   0  0  0  0  0  0  0  0  0  0  0  0
   -0.6346   -0.6495    0.0627 H   0  0  0  0  0  0  0  0  0  0  0  0
    1.6263   -0.8617    3.7345 H   0  0  0  0  0  0  0  0  0  0  0  0
    4.0732    0.5504    0.6723 H   0  0  0  0  0  0  0  0  0  0  0  0
  1  9  1  0  0  0  0
  1 10  3  0  0  0  0
  2  9  1  0  0  0  0
  2 11  3  0  0  0  0
  3  5  1  0  0  0  0
  3  7  2  0  0  0  0
  3 15  1  0  0  0  0
  4  6  2  0  0  0  0
  4  7  1  0  0  0  0
  4 16  1  0  0  0  0
  5  8  2  0  0  0  0
  5 17  1  0  0  0  0
  6  8  1  0  0  0  0
  6 18  1  0  0  0  0
  7 12  1  0  0  0  0
  8 14  1  0  0  0  0
  9 13  1  0  0  0  0
  9 19  1  0  0  0  0
 12 13  2  0  0  0  0
M  END
$$$$
