
  -OEChem-12122420533D

 20 21  0     0  0  0  0  0  0999 V2000
    1.9195   -1.0833   -0.0746 C   0  0  0  0  0  0  0  0  0  0  0  0
    0.8094   -0.5142    0.5449 C   0  0  0  0  0  0  0  0  0  0  0  0
    1.7845   -1.0077    2.7049 C   0  0  0  0  0  0  0  0  0  0  0  0
    2.9103   -1.5791    2.0876 C   0  0  0  0  0  0  0  0  0  0  0  0
    2.9767   -1.6036    0.6790 C   0  0  0  0  0  0  0  0  0  0  0  0
    0.7497   -0.4718    1.9413 C   0  0  0  0  0  0  0  0  0  0  0  0
    5.3688   -1.9492   -0.1157 C   0  0  0  0  0  0  0  0  0  0  0  0
    3.9855   -2.1426    2.9557 C   0  0  0  0  0  0  0  0  0  0  0  0
    5.8981   -2.6627   -1.0865 N   0  0  0  0  0  0  0  0  0  0  0  0
    4.8653   -3.3718   -1.6352 N   0  0  0  0  0  0  0  0  0  0  0  0
    3.7485   -3.1061   -1.0483 N   0  0  0  0  0  0  0  0  0  0  0  0
    4.0383   -2.2034   -0.0552 N   0  0  0  0  0  0  0  0  0  0  0  0
    5.1494   -2.2991    2.6367 O   0  0  0  0  0  0  0  0  0  0  0  0
    3.5293   -2.4618    4.1934 O   0  0  0  0  0  0  0  0  0  0  0  0
   -0.9281    0.4014    2.9037 I   0  0  0  0  0  0  0  0  0  0  0  0
    1.9751   -1.1354   -1.1567 H   0  0  0  0  0  0  0  0  0  0  0  0
    0.0039   -0.1088   -0.0584 H   0  0  0  0  0  0  0  0  0  0  0  0
    1.7345   -0.9962    3.7865 H   0  0  0  0  0  0  0  0  0  0  0  0
    5.8884   -1.2745    0.5444 H   0  0  0  0  0  0  0  0  0  0  0  0
    4.3023   -2.7935    4.6902 H   0  0  0  0  0  0  0  0  0  0  0  0
  1  2  1  0  0  0  0
  1  5  2  0  0  0  0
  1 16  1  0  0  0  0
  2  6  2  0  0  0  0
  2 17  1  0  0  0  0
  3  4  2  0  0  0  0
  3  6  1  0  0  0  0
  3 18  1  0  0  0  0
  4  5  1  0  0  0  0
  4  8  1  0  0  0  0
  5 12  1  0  0  0  0
  6 15  1  0  0  0  0
  7  9  2  0  0  0  0
  7 12  1  0  0  0  0
  7 19  1  0  0  0  0
  8 13  2  0  0  0  0
  8 14  1  0  0  0  0
  9 10  1  0  0  0  0
 10 11  2  0  0  0  0
 11 12  1  0  0  0  0
 14 20  1  0  0  0  0
M  END
$$$$
