16
0 1 C6H5IN2O2
C                     1.892003551114    -0.994352803132    -0.097558623716
C                     0.796898095292    -0.466467398701     0.565993725541
C                     2.952066013613    -1.582265456205     0.606463960338
C                     0.715158451690    -0.497596232244     1.975390343453
C                     1.819520740958    -1.046382575423     2.683423498086
C                     2.922349178330    -1.598018172749     1.998365191191
N                    -0.367987731466     0.078886685214     2.605159469236
N                     1.796520249291    -0.985789408795     4.144191671215
O                     2.835693965284    -0.695710660020     4.735564577027
O                     0.715040831471    -1.217580965307     4.717527899891
I                     4.528152616786    -2.612105539264     2.957210764415
H                     1.923720342872    -0.969608201589    -1.183422142433
H                    -0.023932213981    -0.025609975619     0.006129374963
H                     3.783774497094    -2.027945181248     0.073631357542
H                    -0.606416138594    -0.285113643052     3.519739442872
H                    -1.157515113186     0.288718588715     2.008661905481
