18
0 1 C7F3H5INO
C                     2.062542750239    -0.936288214553    -0.033018213147
C                     0.970892662848    -0.355968862862     0.614318267796
C                     2.827087781678    -1.799638489507     2.113593110765
C                     1.728579377717    -1.216816145484     2.778586478360
C                     2.974919499850    -1.646749514693     0.743460034273
C                     0.805698508101    -0.489506774309     1.994635063368
C                     5.212129348963    -1.598539962646    -0.003021998756
N                     1.560686022312    -1.425073111770     4.142208235653
O                     4.055739462322    -2.296232655909     0.108560731228
F                     5.067129559676    -0.449331846854    -0.703062757138
F                     6.097349782476    -2.373073393857    -0.641880595108
F                     5.736505477678    -1.258257304044     1.199847099246
I                    -0.880170008549     0.436664106446     2.912654985212
H                     2.203111902785    -0.841912496508    -1.103907154533
H                     0.244125444309     0.206839692130     0.037943731123
H                     3.557807281926    -2.378898190292     2.670221024106
H                     0.962476686699    -0.759151821353     4.618471154324
H                     2.410164228902    -1.627403002250     4.654839069798
