18
0 1 C6H5IN2O4
C                     0.000563208597    -2.749801100803    -1.754941626367
C                    -0.245801295618    -1.388250627780    -1.800086416848
C                     0.191442619714    -0.898724173371    -0.540652063935
C                     0.178459394436     0.485612919056     0.007991046849
C                     2.383496703211    -4.655112469204    -0.653859865382
C                     1.034929905267    -4.266421076253    -0.024472948422
N                     0.668960863148    -1.896804521942     0.217126399679
N                     0.534938474090    -3.010897237091    -0.527743542604
O                    -0.253729169291     1.442118380694    -0.594430772199
O                     2.863861888288    -4.107753904349    -1.610695602392
O                     0.694800649846     0.595998898902     1.257472206151
O                     2.991947147172    -5.718124443764    -0.063083601583
I                    -1.081263444725    -0.362767477660    -3.418675395851
H                    -0.146081766178    -3.522818375804    -2.495623342699
H                     0.311221775514    -5.063207446360    -0.229656040711
H                     1.126554002361    -4.162579282802     1.059514187282
H                     0.987618822038    -0.289148878580     1.551606960659
H                     2.493842349170    -6.025131582092     0.714470754154
