18   
torsion grid (-165,)
C        1.7611822433   -0.9277114292   -0.1320699746
C        2.8707807077   -1.4958432099    0.5032732087
C        0.6870938539   -0.4642853647    0.6347548199
C        2.9121382600   -1.5933895911    1.8971033746
C        0.7258143802   -0.5694407937    2.0283055100
C        1.8388640857   -1.1292762795    2.6682706347
C        2.4804283647    0.0962984322    4.7931573449
C        1.8935971357   -1.1696812442    4.1773329328
F        2.6779828816   -2.2654577694    4.6019831840
H        1.7306188252   -0.8530569232   -1.2160089674
H        3.7046606467   -1.8657941377   -0.0880107973
H       -0.1827041554   -0.0296796108    0.1487914629
H        3.7684661163   -2.0427908778    2.3909933524
H       -0.1180296483   -0.2173421994    2.6190342115
H        2.6790501839   -0.0732830204    5.8560559479
H        3.4109362528    0.3821275611    4.2953891133
H        1.7634052358    0.9191645670    4.7128341640
H        0.8913492279   -1.3517083664    4.5813515151
18   
torsion grid (-150,)
C        1.7744993983   -0.9351625923   -0.1379810535
C        2.8745309945   -1.5155916431    0.5030994972
C        0.7028787279   -0.4578749701    0.6235856490
C        2.9089981650   -1.6113765532    1.8971704437
C        0.7340343357   -0.5615443541    2.0175893578
C        1.8377907408   -1.1333576822    2.6628953033
C        2.4782063899    0.0950658938    4.7961048123
C        1.8857171866   -1.1700318845    4.1716554277
F        2.6501471013   -2.2768855875    4.6059163783
H        1.7494772321   -0.8618587916   -1.2221512041
H        3.7063400852   -1.8966220292   -0.0840586441
H       -0.1596714886   -0.0138159769    0.1332739848
H        3.7579470876   -2.0698974966    2.3954384036
H       -0.1079457584   -0.1983855262    2.6041659556
H        2.8786199458   -0.1551069311    5.7836460633
H        3.2782995217    0.5174050891    4.1836612922
H        1.6963422460    0.8449553826    4.9496333576
H        0.8798567833   -1.3433849482    4.5697889699
18   
torsion grid (-135,)
C        1.8026331543   -0.9098077099   -0.1077083570
C        2.8753047435   -1.5657781558    0.5047786813
C        0.7660033620   -0.3964914901    0.6794602150
C        2.9183449687   -1.7033036601    1.8959897662
C        0.8058921254   -0.5391769063    2.0691708120
C        1.8836050279   -1.1886728979    2.6860873847
C        2.4550971972    0.0131789710    4.8622334837
C        1.9352887281   -1.2694968572    4.1938034829
F        2.7595670706   -2.3459546128    4.5911155064
H        1.7707006340   -0.8049225215   -1.1890865709
H        3.6799069058   -1.9742317935   -0.1015809711
H       -0.0760816096    0.1071054280    0.2115671525
H        3.7461200913   -2.2197349873    2.3718732015
H       -0.0080374396   -0.1447117478    2.6749001675
H        3.0985364612   -0.2703048915    5.7005514948
H        3.0305666437    0.6343074248    4.1726425608
H        1.6300037769    0.5970862582    5.2799886165
H        0.9412960400   -1.5170292792    4.5817054746
18   
torsion grid (-120,)
C        1.8139773758   -0.9565513941   -0.1345134950
C        2.8875667352   -1.5551115380    0.5338150604
C        0.7401918854   -0.4429917347    0.6001802082
C        2.8956840934   -1.6349268117    1.9295936230
C        0.7458220771   -0.5291579989    1.9955843828
C        1.8234770849   -1.1193336444    2.6684833458
C        2.4419718224    0.1405105485    4.8013652678
C        1.8399126779   -1.1348418918    4.1795346660
F        2.5888320952   -2.2461775012    4.6299899735
H        1.8105079948   -0.8971621376   -1.2197980289
H        3.7201822412   -1.9636336692   -0.0334058533
H       -0.1028455350    0.0147205880    0.0888206818
H        3.7238147746   -2.1079790990    2.4485386974
H       -0.0963543964   -0.1361497525    2.5623746340
H        3.2758391652   -0.1450266825    5.4483714461
H        2.8170641369    0.8256194775    4.0380016730
H        1.7080193953    0.6693255893    5.4156317508
H        0.8245012747   -1.3011410689    4.5529251327
18   
torsion grid (-105,)
C        1.8367176139   -0.9598639778   -0.1302853954
C        2.8948855214   -1.5774012779    0.5444865965
C        0.7687934199   -0.4269108912    0.5997421034
C        2.8919553149   -1.6571929311    1.9406912386
C        0.7639456136   -0.5111686299    1.9949365861
C        1.8265858698   -1.1213839676    2.6744032629
C        2.4356909004    0.1321434680    4.8085165713
C        1.8310565221   -1.1400354369    4.1872135198
F        2.5862808949   -2.2489177558    4.6315359438
H        1.8401338177   -0.9004593459   -1.2155880332
H        3.7237497128   -2.0008881001   -0.0172414802
H       -0.0628517543    0.0458336840    0.0834567785
H        3.7078499579   -2.1459590731    2.4640952701
H       -0.0739838458   -0.1012548946    2.5562519482
H        3.4334062915   -0.0962388644    5.1917279847
H        2.5303884939    0.9246541897    4.0620714562
H        1.8171228477    0.5166273167    5.6241669070
H        0.8129780032   -1.3074295188    4.5525243970
18   
torsion grid (-90,)
C        1.8559046372   -0.9784838959   -0.1312455126
C        2.9069973152   -1.5812559189    0.5678022967
C        0.7735207041   -0.4427155983    0.5748100312
C        2.8822594858   -1.6431109851    1.9644543880
C        0.7472759272   -0.5093230647    1.9708097826
C        1.8022364700   -1.1044118014    2.6747526968
C        2.4406011475    0.1429144409    4.7918255013
C        1.7866812668   -1.1050070875    4.1879113916
F        2.4974575932   -2.2358049402    4.6507297439
H        1.8761464900   -0.9328485141   -1.2170375806
H        3.7469385785   -2.0068796229    0.0244656263
H       -0.0525232552    0.0184142202    0.0394010458
H        3.6921971131   -2.1214660061    2.5066530890
H       -0.1019758767   -0.0978964168    2.5137152234
H        3.5127545167   -0.0299522107    4.9149737218
H        2.3080101687    0.9987501301    4.1238613409
H        1.9905885364    0.4082461060    5.7527575504
H        0.7586983320   -1.2221362019    4.5454139872
18   
torsion grid (-75,)
C        1.8729684118   -0.9984783212   -0.1302106590
C        2.9154303088   -1.5988715366    0.5839492434
C        0.7853954145   -0.4540681874    0.5608628831
C        2.8766731932   -1.6490205100    1.9805255250
C        0.7447080032   -0.5099811983    1.9570862851
C        1.7907433593   -1.1024037320    2.6760529658
C        2.4414727565    0.1377993918    4.7844531148
C        1.7626938628   -1.0926141836    4.1884266384
F        2.4401983585   -2.2356051751    4.6703226764
H        1.9041023416   -0.9614170282   -1.2160806109
H        3.7592775117   -2.0313307030    0.0522143258
H       -0.0336221674    0.0056377768    0.0136029963
H        3.6798028209   -2.1255421266    2.5346069042
H       -0.1090775600   -0.0928852965    2.4883890845
H        3.5263295130    0.0502707841    4.6796151321
H        2.1174589643    1.0358682931    4.2497202200
H        2.1762333303    0.2630955871    5.8384128561
H        0.7293000669   -1.1760467684    4.5411428093
18   
torsion grid (-60,)
C        1.8888616597   -1.0127032554   -0.1280467135
C        2.9214470107   -1.6199931099    0.5948948826
C        0.8027940009   -0.4538866082    0.5535784499
C        2.8745122685   -1.6620788901    1.9912737572
C        0.7532304096   -0.5030444879    1.9498844151
C        1.7893280382   -1.1020084158    2.6775264351
C        2.4357371927    0.1406496611    4.7847086852
C        1.7539037011   -1.0845547108    4.1884996117
F        2.4109931547   -2.2305984664    4.6904466943
H        1.9266826559   -0.9814088950   -1.2138802636
H        3.7637570099   -2.0636721241    0.0700275347
H       -0.0080928493    0.0116623050   -0.0007843046
H        3.6700660887   -2.1427759401    2.5528152850
H       -0.0998454717   -0.0760528316    2.4743310860
H        3.4884618326    0.1661037994    4.4883322986
H        1.9537419438    1.0520925678    4.4180939863
H        2.3686378346    0.1224864794    5.8766389969
H        0.7177311252   -1.1531146940    4.5377553059
18   
torsion grid (-45,)
C        1.9023501940   -1.0197744975   -0.1290753390
C        2.9234380892   -1.6431336975    0.5968053279
C        0.8219727305   -0.4454035157    0.5484085544
C        2.8711046430   -1.6853891766    1.9928432965
C        0.7665270423   -0.4958954363    1.9445819887
C        1.7911666848   -1.1104498951    2.6752536123
C        2.4260929435    0.1332103420    4.7914827997
C        1.7505141041   -1.0926885942    4.1848976767
F        2.3933200608   -2.2415002597    4.6985652116
H        1.9447898381   -0.9880824874   -1.2147124347
H        3.7608039019   -2.0989768220    0.0744448547
H        0.0202530476    0.0328013211   -0.0085177580
H        3.6578761046   -2.1771187125    2.5572655103
H       -0.0824193831   -0.0577866389    2.4664106436
H        3.4056529064    0.2952162531    4.3314245433
H        1.8167223688    1.0262274992    4.6248604349
H        2.5718249813   -0.0165627458    5.8653587594
H        0.7123411956   -1.1586530036    4.5295475272
18   
torsion grid (-30,)
C        1.9171547191   -1.0234021789   -0.1305341759
C        2.9229276329   -1.6694138309    0.5968859595
C        0.8471227926   -0.4291805616    0.5462385207
C        2.8660499466   -1.7145531021    1.9927535227
C        0.7862761906   -0.4823332682    1.9421412542
C        1.7962964046   -1.1195678282    2.6738017711
C        2.4126958225    0.1317372016    4.8011325517
C        1.7506461795   -1.1027049069    4.1828192838
F        2.3901525880   -2.2514790662    4.7010247626
H        1.9632328528   -0.9895723289   -1.2159608400
H        3.7522522788   -2.1410916481    0.0757460285
H        0.0567342131    0.0667566914   -0.0113703469
H        3.6413292586   -2.2231702453    2.5579799856
H       -0.0549895203   -0.0282442110    2.4626619791
H        3.2694409857    0.4535042872    4.2015805872
H        1.7062239912    0.9638973533    4.8636571748
H        2.7829985318   -0.1172771653    5.7996488676
H        0.7111871893   -1.1775650406    4.5212795667
18   
torsion grid (-15,)
C        1.9345213651   -1.0306367335   -0.1281820864
C        2.9241976778   -1.6944655114    0.6050610830
C        0.8717619322   -0.4176308881    0.5434020459
C        2.8603824712   -1.7401859432    2.0008050359
C        0.8031655311   -0.4698158616    1.9389112427
C        1.7979708746   -1.1254851283    2.6755056640
C        2.4011616451    0.1344228629    4.8102466371
C        1.7426037844   -1.1060160973    4.1845108879
F        2.3792399065   -2.2557938049    4.7048035741
H        1.9870427618   -0.9975060428   -1.2133433554
H        3.7476627309   -2.1807158458    0.0880581444
H        0.0929335401    0.0921956428   -0.0179518052
H        3.6234202639   -2.2630026218    2.5695722348
H       -0.0318862094    0.0002573408    2.4552644970
H        3.0817050028    0.6187734891    4.1046787446
H        1.6526468989    0.8667536131    5.1233210088
H        2.9917322451   -0.1743625320    5.6770791288
H        0.7009646659   -1.1850400247    4.5136348435
18   
torsion grid (0,)
C        1.9549083688   -1.0379494142   -0.1244382761
C        2.9299685922   -1.7150272379    0.6158320972
C        0.8956187714   -0.4100412118    0.5392083817
C        2.8536282594   -1.7592739270    2.0112485100
C        0.8159709299   -0.4598191005    1.9340723176
C        1.7959119507   -1.1291141076    2.6785840145
C        2.3984149666    0.1294880068    4.8169510399
C        1.7280658821   -1.1080515515    4.1883410061
F        2.3572209512   -2.2645927942    4.7031418596
H        2.0157435696   -1.0058912488   -1.2091899814
H        3.7509071053   -2.2125204641    0.1054908063
H        0.1278933640    0.1098550982   -0.0282052694
H        3.6046786851   -2.2928447458    2.5856948946
H       -0.0157249711    0.0234128788    2.4437770687
H        2.8528214821    0.7698392846    4.0575097895
H        1.6821124251    0.7261182233    5.3882300106
H        3.1861314773   -0.2042062852    5.4976339528
H        0.6833473003   -1.1819692087    4.5066560922
18   
torsion grid (15,)
C        1.9773523081   -1.0422391108   -0.1238146116
C        2.9436679116   -1.7206984539    0.6265269410
C        0.9125067146   -0.4119594427    0.5286668322
C        2.8525714191   -1.7641484916    2.0210736561
C        0.8189725853   -0.4604464224    1.9226844264
C        1.7897297271   -1.1312925650    2.6777085430
C        2.4177523550    0.1007104204    4.8175717460
C        1.7072774026   -1.1109771709    4.1878727522
F        2.3070632218   -2.2854200526    4.6970615636
H        2.0491760772   -1.0109385383   -1.2079220520
H        3.7689700100   -2.2197647401    0.1248244695
H        0.1514115172    0.1087784594   -0.0468599378
H        3.5963640028   -2.2997384048    2.6030520950
H       -0.0168149732    0.0249897401    2.4236375619
H        2.6390045037    0.8704976467    4.0756046278
H        1.8131518665    0.5463637509    5.6130569499
H        3.3529144291   -0.2383777653    5.2715438540
H        0.6582681178   -1.1540182757    4.4967224429
18   
torsion grid (30,)
C        1.9927023672   -1.0543321302   -0.1270514500
C        2.9458662039   -1.7362494333    0.6367246486
C        0.9270023970   -0.4122538162    0.5125354079
C        2.8423480450   -1.7725232243    2.0306310380
C        0.8198204370   -0.4524136475    1.9056907938
C        1.7781470059   -1.1274611572    2.6728716741
C        2.4108144089    0.0961353089    4.8053903376
C        1.6815610473   -1.1001998372    4.1826581270
F        2.2641423034   -2.2788802297    4.7000096933
H        2.0751511688   -1.0292879297   -1.2105903066
H        3.7718772806   -2.2442465384    0.1453353996
H        0.1757135120    0.1117057641   -0.0728337239
H        3.5761632906   -2.3114680974    2.6221885142
H       -0.0168506310    0.0421007991    2.3963464116
H        2.4024051420    0.9615048895    4.1394358213
H        1.9528172833    0.3799451457    5.7583253846
H        3.4435532790   -0.1933661701    5.0197665126
H        0.6295016263   -1.1213288078    4.4842297761
18   
torsion grid (45,)
C        2.0086705704   -1.0610509946   -0.1260720653
C        2.9511132922   -1.7492009182    0.6454855013
C        0.9433852437   -0.4083488115    0.5032968125
C        2.8357589770   -1.7798124818    2.0384825950
C        0.8257724315   -0.4446906039    1.8957315629
C        1.7721996008   -1.1253525641    2.6724525433
C        2.4090367448    0.0845775000    4.8035255878
C        1.6658939265   -1.0952589103    4.1810992405
F        2.2252035127   -2.2801206331    4.7091622694
H        2.0992748778   -1.0393239024   -1.2090143496
H        3.7764792142   -2.2653390706    0.1615150918
H        0.2011496505    0.1206562234   -0.0890519802
H        3.5606134496   -2.3232688924    2.6370175842
H       -0.0108598701    0.0571360958    2.3788914328
H        2.2026958276    1.0083080523    4.2571594577
H        2.1137801206    0.2167319336    5.8493684889
H        3.4843026598   -0.1163852968    4.7841376232
H        0.6119084942   -1.0937403402    4.4785627660
18   
torsion grid (60,)
C        2.0228505307   -1.0677746550   -0.1259899526
C        2.9533695266   -1.7668037962    0.6505032684
C        0.9618124452   -0.4025845637    0.4971994687
C        2.8306010104   -1.7953422071    2.0427025406
C        0.8357388701   -0.4375840338    1.8890137945
C        1.7704446128   -1.1289089380    2.6702835118
C        2.4057444939    0.0718700348    4.8050484842
C        1.6578193187   -1.0980488096    4.1773427699
F        2.1922748522   -2.2895864290    4.7163756154
H        2.1195714715   -1.0473099011   -1.2084237450
H        3.7750459030   -2.2927266276    0.1708366734
H        0.2293230453    0.1351784490   -0.0993493945
H        3.5460741435   -2.3464224615    2.6457124105
H        0.0018847514    0.0729538003    2.3677454123
H        2.0274205207    1.0183753519    4.4077138975
H        2.2778062844    0.0669291178    5.8917946782
H        3.4727076876    0.0001372969    4.5739642505
H        0.6026082026   -1.0795940044    4.4716600105
18   
torsion grid (75,)
C        2.0364519729   -1.0742920294   -0.1267845944
C        2.9533937692   -1.7881410464    0.6526461850
C        0.9830389583   -0.3944526072    0.4932259976
C        2.8247459814   -1.8162253926    2.0441847720
C        0.8503716758   -0.4299401170    1.8845946956
C        1.7716103016   -1.1356753645    2.6687037381
C        2.4013962492    0.0625020703    4.8109914355
C        1.6543359757   -1.1046559121    4.1742387720
F        2.1656902966   -2.3026771005    4.7224620415
H        2.1378775684   -1.0537709594   -1.2087860812
H        3.7689723418   -2.3257977488    0.1755887101
H        0.2611065421    0.1551116611   -0.1054166509
H        3.5300332745   -2.3777219139    2.6496384564
H        0.0217800162    0.0914429890    2.3605815566
H        1.8754975587    0.9975484751    4.5918361278
H        2.4509226424   -0.0659269182    5.8958836667
H        3.4105514046    0.1493692200    4.3982098660
H        0.5980654429   -1.0767009576    4.4647398473
18   
torsion grid (90,)
C        2.0500933975   -1.0885361594   -0.1271561366
C        2.9535258615   -1.8103448563    0.6608720284
C        1.0027926039   -0.3915398405    0.4838184103
C        2.8175373932   -1.8288336869    2.0518075745
C        0.8623731817   -0.4179703470    1.8748474862
C        1.7702522654   -1.1311936521    2.6674975342
C        2.3963123624    0.0813200699    4.8121897247
C        1.6461979783   -1.0885350163    4.1714899003
F        2.1352224743   -2.2903203822    4.7337345886
H        2.1572770103   -1.0752656889   -1.2087081553
H        3.7641417365   -2.3616594631    0.1909478097
H        0.2911138660    0.1641839155   -0.1213836972
H        3.5125865224   -2.3957019815    2.6640039368
H        0.0382943631    0.1167242484    2.3436748419
H        1.7594246300    0.9723255311    4.8037219704
H        2.6441319708   -0.1549886755    5.8501157113
H        3.2994163168    0.3335340726    4.2500724252
H        0.5884308013   -1.0519821323    4.4545440844
18   
torsion grid (105,)
C        2.0678799782   -1.0888421607   -0.1248248451
C        2.9512063817   -1.8377770049    0.6604275913
C        1.0342822499   -0.3739484658    0.4890895069
C        2.8104006176   -1.8671081129    2.0509278451
C        0.8875044710   -0.4090643213    1.8790998070
C        1.7768786183   -1.1504400782    2.6674169092
C        2.3846079185    0.0627675478    4.8271014474
C        1.6455992833   -1.1154227898    4.1713146356
F        2.1411587740   -2.3176313319    4.7262306894
H        2.1795338946   -1.0682791882   -1.2058191814
H        3.7510091274   -2.4028999651    0.1884319803
H        0.3374640860    0.2028864568   -0.1136428459
H        3.4900967303   -2.4549765742    2.6604129197
H        0.0745908356    0.1409242770    2.3498694158
H        1.6766092055    0.8566194651    5.0851578277
H        2.8685419152   -0.2738435944    5.7471697079
H        3.1254310264    0.5006226889    4.1537367409
H        0.5856921552   -1.0935549119    4.4458852303
18   
torsion grid (120,)
C        2.0852618959   -1.1056116637   -0.1247154943
C        2.9558507678   -1.8516259244    0.6772733515
C        1.0484130354   -0.3786193514    0.4692956153
C        2.8000021418   -1.8676687391    2.0665096177
C        0.8887786116   -0.4003013126    1.8580932202
C        1.7645348326   -1.1385421992    2.6645792844
C        2.3748913623    0.0845652414    4.8210721589
C        1.6157336639   -1.0871226980    4.1676246900
F        2.0939272080   -2.2941866307    4.7275184585
H        2.2091647364   -1.0965879144   -1.2045119070
H        3.7576964378   -2.4254014694    0.2193584820
H        0.3608948999    0.1957334821   -0.1464463954
H        3.4693161360   -2.4542761657    2.6884714389
H        0.0747471616    0.1597838051    2.3148553558
H        1.6929037441    0.7537533351    5.3529792884
H        3.0890664760   -0.3169415708    5.5447625868
H        2.9236814494    0.6717973654    4.0814802846
H        0.5530876287   -1.0491444570    4.4271392827
18   
torsion grid (135,)
C        2.1069445792   -1.1130421771   -0.1185824399
C        2.9593630056   -1.8695147340    0.6923871999
C        1.0750046926   -0.3721064020    0.4674326013
C        2.7888753113   -1.8821914297    2.0803252689
C        0.9013947415   -0.3884538980    1.8543191438
C        1.7591290685   -1.1385023487    2.6696271353
C        2.3579807958    0.0798129490    4.8242911630
C        1.5946943668   -1.0864460997    4.1726102687
F        2.0763231134   -2.2930480507    4.7295307223
H        2.2405074276   -1.1062680331   -1.1972713093
H        3.7581460860   -2.4542681567    0.2430853349
H        0.4010000612    0.2109079300   -0.1550309129
H        3.4437121162   -2.4782816754    2.7084072219
H        0.0915186944    0.1845652779    2.3025839114
H        1.7670169483    0.5791070746    5.5963129084
H        3.2615756960   -0.3227943328    5.2916918844
H        2.6804467265    0.8104406977    4.0791102008
H        0.5297560064   -1.0468699797    4.4222043546
18   
torsion grid (150,)
C        1.7135735798   -0.8841563520   -0.1295896546
C        2.8531058433   -1.4223093650    0.4775394797
C        0.6340454905   -0.4777849031    0.6620452729
C        2.9184724991   -1.5480485512    1.8685934132
C        0.6986952485   -0.6086036019    2.0522143092
C        1.8414446701   -1.1391482692    2.6648340418
C        2.5008328670    0.0640645969    4.7976433785
C        1.9184603674   -1.2085642974    4.1743497648
F        2.7506886529   -2.2905349490    4.5409324871
H        1.6637806703   -0.7886587756   -1.2111714928
H        3.6917389227   -1.7475162880   -0.1330470916
H       -0.2593142215   -0.0678404783    0.1978067643
H        3.7977452707   -1.9767238121    2.3396761352
H       -0.1478047437   -0.2981301852    2.6623191213
H        2.1494809040    0.2209504904    5.8206965378
H        3.5910100440   -0.0348659128    4.8158445075
H        2.2770183603    0.9387264337    4.1819656813
H        0.9282783567   -1.4328342529    4.5839666495
18   
torsion grid (165,)
C        1.7308232259   -0.8979227383   -0.1302745414
C        2.8622701867   -1.4395935393    0.4889981463
C        0.6478200057   -0.4797980685    0.6502493270
C        2.9154758962   -1.5562902229    1.8811648545
C        0.7001609608   -0.6027184512    2.0417300243
C        1.8345590270   -1.1364406654    2.6666471350
C        2.5035514593    0.0615694051    4.7921424089
C        1.9010110317   -1.1983116053    4.1764610164
F        2.7080918222   -2.2926195100    4.5612365797
H        1.6901233558   -0.8087959433   -1.2127851574
H        3.7035034336   -1.7740492960   -0.1129409412
H       -0.2389479995   -0.0667189477    0.1762920027
H        3.7883417453   -1.9873799583    2.3620927516
H       -0.1496285243   -0.2843615650    2.6431297255
H        2.3395102198    0.0983661102    5.8726326913
H        3.5809380188    0.0678914077    4.5979800617
H        2.0860619462    0.9551261966    4.3198302186
H        0.9037160012   -1.3950636683    4.5841943168
18   
torsion grid (180,)
C        1.7459095324   -0.9105624653   -0.1321165557
C        2.8683875934   -1.4620230524    0.4951816627
C        0.6648847440   -0.4755616958    0.6416351623
C        2.9153825365   -1.5713051428    1.8879617240
C        0.7098233244   -0.5920185228    2.0340626340
C        1.8354840731   -1.1352104512    2.6662352862
C        2.5046022798    0.0645784050    4.7909957004
C        1.8960758470   -1.1894470918    4.1755222822
F        2.6820926761   -2.2922995759    4.5787095705
H        1.7108002380   -0.8269347539   -1.2152683965
H        3.7078894936   -1.8097615691   -0.1015927271
H       -0.2148597765   -0.0543630123    0.1618072704
H        3.7815724838   -2.0090094134    2.3751816481
H       -0.1390407884   -0.2617210235    2.6302527327
H        2.5183571686   -0.0118143486    5.8822953051
H        3.5283238999    0.1988951523    4.4289243241
H        1.9228124274    0.9449738527    4.5017897840
H        0.8945341159   -1.3677887105    4.5823926098
