28   
torsion grid (-165,)
H       -0.3433958409    2.5326126636   -1.0583884287
C        0.3798863394    1.8052498121   -1.4417864361
C        0.5653892820    0.7653327118   -0.3365239676
O        0.9988265369    1.5311898695    0.7994059096
C        1.5469211229    0.8281796687    1.8273264830
C        2.3925229168    1.7370407140    2.6759544610
O        1.3562072554   -0.3617874798    1.9967011799
O       -0.3374023927    1.2839416629   -2.6001197024
C       -0.0693242806    0.1591413947   -3.3175680348
C        1.1634036366   -0.6704684813   -3.0279777633
O       -0.8585311115   -0.1378899846   -4.1977425458
C        1.6391873876    2.6019092392   -1.7943981215
O        2.7812912230    1.8077985106   -2.0755917367
P        4.0661132804    1.7521169219   -0.9835420052
O        5.2808262240    1.4044041702   -1.7873700424
O        3.6435851526    0.3726209945   -0.1254517648
O        3.9203119707    2.9107888518   -0.0397748575
H        1.3412814752    0.0380503053   -0.5596520614
H       -0.3799586621    0.2543841105   -0.1240811411
H        1.7972610592    2.5851192761    3.0306702231
H        3.1882745055    2.1376882558    2.0356264557
H        2.7995468111    1.1803701003    3.5210723794
H        0.9542462460   -1.3570792090   -2.2014040859
H        2.0270968690   -0.0579462215   -2.7673982002
H        1.3672795244   -1.2671611619   -3.9183954806
H        1.8557273805    3.2750270539   -0.9595326891
H        1.4136866320    3.2018847332   -2.6850684083
H        4.2341947517   -0.3367851809   -0.4241483982
28   
torsion grid (-150,)
H       -0.3255080458    2.5555954584   -1.0234319292
C        0.4393754501    1.8743957538   -1.4116831964
C        0.6144826470    0.8034537485   -0.3326701437
O        0.9934437478    1.5460323353    0.8382258197
C        1.5322279543    0.8239958927    1.8588976249
C        2.3514017958    1.7211859699    2.7445499767
O        1.3563701214   -0.3725893041    1.9924144622
O       -0.1989148735    1.3790540789   -2.6267535340
C       -0.0330044575    0.1653591184   -3.2175845481
C        1.2192359257   -0.6478464552   -2.9559425250
O       -0.8891493078   -0.1988951185   -4.0046807590
C        1.6948629860    2.6983302290   -1.6949114797
O        2.8381051097    1.9091822582   -1.9894793484
P        4.1095026355    1.8184589750   -0.8855259722
O        5.3370398278    1.5064055414   -1.6845187254
O        3.6828011525    0.4056856110   -0.0844039905
O        3.9473057902    2.9397959516    0.1002515470
H        1.4155384129    0.1027903706   -0.5482978760
H       -0.3244404779    0.2643177567   -0.1644957108
H        1.7475913123    2.5665980647    3.0906552260
H        3.1658964307    2.1280368917    2.1316259321
H        2.7337245176    1.1540456200    3.5942446038
H        1.0387495346   -1.3505590053   -2.1366811048
H        2.0788694023   -0.0237044316   -2.7100941312
H        1.4127674492   -1.2334925017   -3.8567403847
H        1.8942049233    3.3333775284   -0.8268963663
H        1.4875240968    3.3356407947   -2.5635746024
H        4.2847426869   -0.2877668667   -0.3975767233
28   
torsion grid (-135,)
H        0.1442877081    2.6378165368   -1.7294606836
C        0.5200579960    1.6097471592   -1.7904693572
C        0.1398874767    0.8771449857   -0.5002629314
O        0.8490158756    1.6254727555    0.5108884470
C        0.9917582082    1.0234162527    1.7214571464
C        2.1586486509    1.6247820185    2.4580232080
O        0.2639477082    0.1322667056    2.1172536686
O       -0.0840838537    1.0963924772   -3.0237408544
C       -0.6688747488   -0.1087009317   -3.1617916955
C       -0.7775421827   -0.4539587941   -4.6336198631
O       -1.0683179230   -0.8277643338   -2.2659720349
C        2.0299148587    1.6774691482   -2.0237550780
O        2.6200698522    0.3908796930   -2.0504785977
P        3.7362127969   -0.0329182219   -0.8568469862
O        4.6011025987   -1.0926439798   -1.4674830995
O        2.7262803961   -0.7798124289    0.2489832387
O        4.2069693336    1.2303673269   -0.1918834046
H        0.4960343500   -0.1483684628   -0.4867952502
H       -0.9345456923    0.8962823874   -0.3101847565
H        2.0439743570    2.7118522836    2.5271054121
H        3.0608337417    1.4245534697    1.8664311350
H        2.2321768179    1.1872434066    3.4547183571
H        0.2156094051   -0.7433676715   -4.9922626103
H       -1.1025433857    0.4118919499   -5.2163542908
H       -1.4683048580   -1.2877469831   -4.7648063861
H        2.4861762166    2.2972812310   -1.2476182746
H        2.1936065976    2.1545732063   -2.9995191674
H        2.7144896993   -1.7282207032    0.0443589230
28   
torsion grid (-120,)
H        0.0788485658    2.6321591409   -1.6557945539
C        0.4895075967    1.6164634879   -1.7089925541
C        0.0955865178    0.8457212644   -0.4447677718
O        0.8066689527    1.5461389264    0.5972571428
C        0.9027621392    0.9156643296    1.7968541852
C        2.0350365789    1.5054412379    2.5946322492
O        0.1622169870    0.0138820858    2.1426715990
O       -0.0188046903    1.0768226289   -2.9740827568
C       -0.7931030635   -0.0130343914   -3.1103787873
C       -0.7799832740   -0.4644678472   -4.5573271833
O       -1.4243220550   -0.5694485043   -2.2305940108
C        2.0051476782    1.7338895582   -1.8882249129
O        2.6272527501    0.4629162187   -1.9261450472
P        3.7216608798    0.0305913349   -0.7190500292
O        4.6313079730   -0.9870541118   -1.3371843316
O        2.7034134144   -0.7858256267    0.3305548880
O        4.1420879086    1.2825768596   -0.0014684926
H        0.4434122728   -0.1845486454   -0.4719548839
H       -0.9767636805    0.8657888198   -0.2546597418
H        1.8912604236    2.5850036813    2.7123833244
H        2.9589326907    1.3554418500    2.0226414835
H        2.0878795058    1.0230086020    3.5717144179
H        0.1994946959   -0.9021398662   -4.7749012069
H       -0.9183374747    0.3857516443   -5.2306030071
H       -1.5595441440   -1.2104067247   -4.7161869945
H        2.4198421077    2.3466119564   -1.0842232673
H        2.1862540464    2.2365049603   -2.8478636602
H        2.7656729296   -1.7305261136    0.1186848140
28   
torsion grid (-105,)
H        0.0871870176    2.6393373788   -1.6915215366
C        0.5023221181    1.6236831929   -1.7100891076
C        0.1254046909    0.8712620983   -0.4303174052
O        0.8764361540    1.5501225359    0.5950329024
C        0.9623409083    0.9286346985    1.7991238984
C        2.0920957675    1.5205312070    2.5990449906
O        0.2139503111    0.0343744825    2.1487460743
O        0.0200113595    1.0177068498   -2.9545223146
C       -0.9539472625    0.0981551992   -3.0418214364
C       -0.9269045740   -0.5410591165   -4.4158096123
O       -1.7551933335   -0.1920367064   -2.1708993971
C        2.0171512291    1.7524708169   -1.8984681089
O        2.6521289541    0.4879337245   -1.9173569726
P        3.7609780328    0.0816652865   -0.7172036840
O        4.6849746024   -0.9246065021   -1.3337608831
O        2.7624086195   -0.7513169997    0.3401919587
O        4.1666945272    1.3436415144   -0.0088861037
H        0.4510306164   -0.1680632607   -0.4732334594
H       -0.9394796508    0.9133952738   -0.2120779536
H        1.9308209814    2.5953427512    2.7374214149
H        3.0150100013    1.3954927749    2.0200887935
H        2.1562530530    1.0227410930    3.5676770281
H       -0.0359384563   -1.1723388240   -4.4909040497
H       -0.8532607830    0.2225253503   -5.1948510845
H       -1.8226496222   -1.1469421142   -4.5566645489
H        2.4294527721    2.3841468288   -1.1082255606
H        2.1876107847    2.2389217099   -2.8684360068
H        2.8666429902   -1.6962445265    0.1469858090
28   
torsion grid (-90,)
H        0.1482427420    2.5472399432   -1.7589304519
C        0.6120973997    1.5533638634   -1.7992958150
C        0.2164343245    0.7022509517   -0.5907233509
O        0.8813263772    1.3340993891    0.5179339481
C        0.9286851838    0.6329410916    1.6790664836
C        1.9650674658    1.2302675890    2.5932222020
O        0.2152643845   -0.3252874057    1.9146189439
O        0.2379854309    0.9634851536   -3.0869850809
C       -0.8635788518    0.2196376006   -3.2717957322
C       -0.7850113038   -0.4909403951   -4.6077569516
O       -1.8051369827    0.1266924489   -2.5025900222
C        2.1250459500    1.7745268880   -1.8979031904
O        2.8393338369    0.5539794321   -1.9360644521
P        3.9076108215    0.1567884209   -0.6978476067
O        4.9385680012   -0.7415144062   -1.3119790311
O        2.9167636267   -0.8115914097    0.2461354719
O        4.1783395592    1.3983518891    0.1048152774
H        0.5993114366   -0.3143288849   -0.6983140485
H       -0.8581990133    0.6782272289   -0.4256007382
H        1.7114975291    2.2730646885    2.8144097929
H        2.9249887666    1.2259847852    2.0635098315
H        2.0143458125    0.6529732307    3.5175383422
H       -0.0013775292   -1.2533381018   -4.5586944372
H       -0.5063417118    0.2107779969   -5.3986377240
H       -1.7442329527   -0.9586567805   -4.8320546040
H        2.4541016620    2.3916954784   -1.0584343812
H        2.3170919285    2.3161860235   -2.8342184972
H        3.1120874306   -1.7320394374    0.0102647096
28   
torsion grid (-75,)
H        0.0834640549    2.4530080162   -1.9224312991
C        0.5888063580    1.4795140159   -1.9484731021
C        0.2333251904    0.6162741300   -0.7379846916
O        0.8475824857    1.2840831427    0.3771021359
C        0.9243879129    0.5841157174    1.5373468330
C        1.9182092372    1.2360115332    2.4611182887
O        0.2635188201   -0.4132308466    1.7641162662
O        0.2299826930    0.8337728603   -3.2124731278
C       -0.9829071616    0.2916178382   -3.4032316274
C       -0.9936150580   -0.5246380703   -4.6791642128
O       -1.9502406586    0.4375978693   -2.6744445347
C        2.0891676869    1.7658102777   -2.0542773396
O        2.8648027696    0.5829072630   -2.0669806588
P        3.9393142513    0.2586025738   -0.8133437310
O        5.0263248493   -0.5865828922   -1.4056137985
O        2.9933927329   -0.7556424574    0.1289033925
O        4.1304106668    1.5205232441   -0.0194867824
H        0.6779285929   -0.3755162034   -0.8436497561
H       -0.8411210545    0.5336075432   -0.5863210412
H        1.6076401266    2.2639697536    2.6788182519
H        2.8816747044    1.2825399552    1.9399218828
H        1.9897422130    0.6623353742    3.3862204462
H       -0.3846814783   -1.4224076921   -4.5334471431
H       -0.5450041661    0.0417813040   -5.4996332522
H       -2.0172477118   -0.8094688131   -4.9245181923
H        2.3863182146    2.4145601816   -1.2263184051
H        2.2569605433    2.2987049098   -3.0004309031
H        3.2446677546   -1.6653875169   -0.0951841229
28   
torsion grid (-60,)
H        0.0669894162    2.2716465440   -1.9978345214
C        0.6089581928    1.3187596405   -2.0062592590
C        0.2501899105    0.4492098477   -0.8035122778
O        0.7794949031    1.1504903426    0.3331486828
C        0.8531926241    0.4535712019    1.4956002054
C        1.7900704184    1.1472694567    2.4476877696
O        0.2310589351   -0.5726616847    1.7023639508
O        0.2748359461    0.6260954361   -3.2508842894
C       -1.0044087515    0.3092467108   -3.5075465275
C       -1.0939831084   -0.5580769970   -4.7455174869
O       -1.9663938538    0.6713501219   -2.8501091390
C        2.0993568785    1.6492302536   -2.0873076290
O        2.9175250937    0.4954385915   -2.0587501127
P        3.9608114382    0.2283643910   -0.7654355064
O        5.0992316105   -0.5804605946   -1.3099230264
O        3.0229030007   -0.8098299228    0.1587407798
O        4.0745311378    1.5061226161    0.0177633066
H        0.7481853027   -0.5188853254   -0.8842975437
H       -0.8267866404    0.3162044858   -0.7015960428
H        1.4365514478    2.1651045116    2.6461253604
H        2.7682055762    1.2241888666    1.9583469458
H        1.8513031136    0.5827735946    3.3791337516
H       -0.6848765863   -1.5478612039   -4.5191883250
H       -0.4921361356   -0.1349277252   -5.5540792637
H       -2.1360971158   -0.6537279912   -5.0521090246
H        2.3544480402    2.3228818898   -1.2646083676
H        2.2718958823    2.1711671884   -3.0388209007
H        3.3102785038   -1.7126265986   -0.0495836566
28   
torsion grid (-45,)
H        0.0734660949    2.2543680507   -1.9565340810
C        0.6540215197    1.3264930310   -1.9874110191
C        0.3767852559    0.4644850144   -0.7595018893
O        0.9122849623    1.2020377484    0.3497693629
C        1.0700806871    0.5200873218    1.5131629814
C        2.0278087509    1.2562858082    2.4107501692
O        0.4976749177   -0.5262444407    1.7589174434
O        0.2472311177    0.5815868603   -3.1784605900
C       -1.0646998444    0.4786681728   -3.4467681504
C       -1.2904739720   -0.4087010094   -4.6526229015
O       -1.9560038178    1.0213509852   -2.8140134364
C        2.1251642235    1.6941457527   -2.1596333759
O        2.9803606085    0.5668065791   -2.1482286605
P        4.0851633215    0.3569545344   -0.8955890524
O        5.2249038733   -0.4266859703   -1.4729796621
O        3.2198997552   -0.6906318535    0.0872991030
O        4.1902264071    1.6525601458   -0.1411793151
H        0.9074010736   -0.4854045150   -0.8423248918
H       -0.6933082708    0.2926780234   -0.6251414908
H        1.6528986424    2.2658610984    2.6116813064
H        2.9788732999    1.3552089914    1.8741594048
H        2.1509729893    0.7078427404    3.3456456565
H       -1.0549340625   -1.4438847645   -4.3855365633
H       -0.6217052107   -0.1229390916   -5.4687222759
H       -2.3321171522   -0.3409684302   -4.9681182452
H        2.4030197529    2.3946376383   -1.3667106967
H        2.2318281751    2.1985227864   -3.1301395734
H        3.5222386016   -1.5888851031   -0.1196199701
28   
torsion grid (-30,)
H        0.1433459381    2.2229516053   -1.9108599001
C        0.7620375596    1.3214743367   -1.9335265568
C        0.5262123088    0.4851739473   -0.6799366052
O        1.0476490424    1.2654558560    0.4054910761
C        1.2510411643    0.6155601725    1.5806334427
C        2.2036983627    1.4014023730    2.4403112047
O        0.7169590116   -0.4419430598    1.8618334581
O        0.3395759345    0.5120252321   -3.0760779917
C       -0.9437232172    0.5876329902   -3.4650904427
C       -1.1973848187   -0.3417618975   -4.6332061698
O       -1.7940876479    1.2975824733   -2.9529094985
C        2.2164021293    1.7260703391   -2.1466981243
O        3.1051178374    0.6250909457   -2.1242566961
P        4.2312649779    0.4737604192   -0.8821582606
O        5.3846063301   -0.2909823661   -1.4575587275
O        3.4074892656   -0.5735912362    0.1359661834
O        4.3099597749    1.7883360124   -0.1579759772
H        1.0793036911   -0.4530781114   -0.7414596065
H       -0.5398516623    0.2868677537   -0.5348662815
H        1.8068107216    2.4068172442    2.6183122219
H        3.1425638974    1.5086995331    1.8839364514
H        2.3569074814    0.8836011240    3.3881396342
H       -1.1202940999   -1.3791563114   -4.2923684305
H       -0.4392855415   -0.1962582871   -5.4072437576
H       -2.1950116210   -0.1618824078   -5.0350219080
H        2.4886242052    2.4547290470   -1.3770968359
H        2.2893261360    2.2086544889   -3.1313300689
H        3.7278874083   -1.4687074137   -0.0569285510
28   
torsion grid (-15,)
H        0.1581476013    2.1281625345   -1.8946009879
C        0.7623575488    1.2221423385   -1.9835475997
C        0.7029765364    0.4183761180   -0.6889770933
O        1.3827964440    1.2153051787    0.2909701025
C        1.7452141938    0.5893041936    1.4406157765
C        2.8220479802    1.3781933349    2.1346756734
O        1.2427820282   -0.4523496476    1.8216140277
O        0.1640099967    0.3759822887   -3.0153001963
C       -1.0872296014    0.6454196633   -3.4232909783
C       -1.5079861181   -0.3311463695   -4.5014362814
O       -1.7935114208    1.5442259399   -2.9955858831
C        2.1741209377    1.6043872810   -2.4152871562
O        3.0472217016    0.4935902237   -2.4964475264
P        4.3372412669    0.3517226421   -1.4239873096
O        5.3897387507   -0.4374699232   -2.1418629037
O        3.6572732347   -0.6664203556   -0.2779022471
O        4.5307454702    1.6780848247   -0.7444272501
H        1.2290809787   -0.5301358608   -0.8043550714
H       -0.3341056852    0.2373030224   -0.3879797505
H        2.4671614948    2.3929584681    2.3453915608
H        3.6711660379    1.4599545884    1.4455295282
H        3.1051102741    0.8780457803    3.0618719885
H       -1.4814394713   -1.3510902249   -4.1063549980
H       -0.8035571781   -0.2886893742   -5.3370962881
H       -2.5146368719   -0.0892375108   -4.8434097762
H        2.5614896301    2.3464847309   -1.7103328454
H        2.1077161920    2.0649096334   -3.4109017969
H        3.9354395239   -1.5692235305   -0.4985888372
28   
torsion grid (0,)
H       -0.2566162681    2.1674614526   -1.8048981555
C        0.4325686626    1.3204426255   -1.7811701945
C        0.2165614808    0.4863093930   -0.5239668841
O        0.6319457187    1.3196845930    0.5668451445
C        0.8294308186    0.7042254284    1.7612276913
C        1.6856086325    1.5683482954    2.6464676658
O        0.3586686975   -0.3843061355    2.0375824831
O        0.1039931012    0.4336872298   -2.8961673290
C       -0.9099776359    0.7665799738   -3.7121118511
C       -1.0538690391   -0.2625967906   -4.8134478396
O       -1.6186936983    1.7533554850   -3.5963496566
C        1.8573897342    1.8413636917   -1.9463604422
O        2.8314570919    0.8171628294   -1.8745152604
P        3.9092946341    0.7641047222   -0.5823428244
O        5.1451818974    0.0919524652   -1.0989057556
O        3.1280854551   -0.3412510692    0.4081041040
O        3.8496108844    2.0839373399    0.1337335060
H        0.8396999951   -0.4086036030   -0.5459203630
H       -0.8362334161    0.2042545084   -0.4165252280
H        1.2095979061    2.5442499693    2.7918453625
H        2.6363611220    1.7375661936    2.1267239048
H        1.8359488086    1.0755830512    3.6079999592
H       -1.2095900079   -1.2545167619   -4.3792927531
H       -0.1305486900   -0.3056268364   -5.3986202105
H       -1.8935199833    0.0025793617   -5.4564638286
H        2.0393436762    2.5994484080   -1.1781825179
H        1.9284273200    2.3173422141   -2.9342940087
H        3.5284543846   -1.2082008627    0.2371220710
28   
torsion grid (15,)
H       -0.3396830151    2.0758533385   -1.8247429577
C        0.3060801059    1.1952733829   -1.8598128756
C        0.1569082457    0.3526681993   -0.5992204595
O        0.7029581326    1.1477067562    0.4623166548
C        0.9716398448    0.5032824949    1.6275304548
C        1.9442509557    1.3086864638    2.4453450854
O        0.4716178425   -0.5650563461    1.9302531570
O       -0.1580086792    0.3305808200   -2.9428995956
C       -1.0044730277    0.8366908457   -3.8548281978
C       -1.3044463885   -0.1959198531   -4.9206264751
O       -1.4641192586    1.9670928268   -3.8435205401
C        1.7352847304    1.6578046939   -2.1352109215
O        2.6619021511    0.5881825548   -2.1661790962
P        3.8378128492    0.4514509611   -0.9699634130
O        4.9904429437   -0.2687609848   -1.6014287418
O        3.0859142937   -0.6371651416    0.0613312514
O        3.9050758374    1.7551009685   -0.2254264948
H        0.7325605438   -0.5697653184   -0.6847786415
H       -0.8948664564    0.1169620247   -0.4055054587
H        1.5327779779    2.3042354352    2.6446519738
H        2.8534728133    1.4401224027    1.8461877216
H        2.1525547905    0.7924851742    3.3835108273
H       -1.6260558082   -1.1344129346   -4.4607022944
H       -0.3906435472   -0.4060209277   -5.4850294402
H       -2.0753592684    0.1827252516   -5.5923518642
H        2.0165281271    2.3895685701   -1.3714858056
H        1.7451309587    2.1525558823   -3.1159748034
H        3.4293912782   -1.5178502226   -0.1567364549
28   
torsion grid (30,)
H       -0.7041009518    2.0544001348   -1.6851905946
C        0.0569185646    1.2704619556   -1.6453157046
C       -0.0747286309    0.4431914780   -0.3729456372
O        0.2695353648    1.3314086828    0.6993325995
C        0.5278343779    0.7594205811    1.9041836578
C        1.3175148653    1.7095001491    2.7626995483
O        0.1511889154   -0.3582604069    2.2074301712
O       -0.2101916503    0.3194136611   -2.7226026693
C       -0.7950664742    0.7788684193   -3.8412225066
C       -0.8738211197   -0.3155643621   -4.8839038562
O       -1.1973620857    1.9187597638   -4.0070221331
C        1.4279838938    1.9204173739   -1.8254030372
O        2.4882043264    0.9843095516   -1.7498375957
P        3.5707246979    1.0333401085   -0.4626181009
O        4.8565528290    0.4633986419   -0.9799197684
O        2.8912869149   -0.1262255079    0.5417175559
O        3.4030572071    2.3491822976    0.2438557545
H        0.6284922671   -0.3904117680   -0.3832648779
H       -1.0954210808    0.0656383923   -0.2519060803
H        0.7639849638    2.6457790016    2.8935715525
H        2.2460398100    1.9461601009    2.2288456528
H        1.5168778893    1.2508859416    3.7322046065
H       -1.2574796830   -1.2400075677   -4.4442300448
H        0.1347410089   -0.5232564284   -5.2554745289
H       -1.5081903232    0.0085173951   -5.7095590909
H        1.5453998983    2.6984796576   -1.0648509583
H        1.4522841613    2.3922677294   -2.8159573034
H        3.3685669602   -0.9552187745    0.3800313285
28   
torsion grid (45,)
H       -0.4241857311    2.1903651049   -1.4787917172
C        0.3955874231    1.4667523702   -1.4314348508
C        0.3283998563    0.6758999232   -0.1297685295
O        0.6188488534    1.6197204436    0.9104116039
C        0.9206161873    1.1054466308    2.1311292971
C        1.6554716208    2.1307739243    2.9506469573
O        0.6172172298   -0.0228318130    2.4745265376
O        0.1678617139    0.4516388510   -2.4588310224
C       -0.1979499421    0.8654360351   -3.6839402580
C       -0.1813107589   -0.2890145132   -4.6621254697
O       -0.4959460696    2.0116436850   -3.9754963205
C        1.7218655485    2.1974114751   -1.6377290995
O        2.8361050345    1.3258172268   -1.5428850154
P        3.9254819443    1.4809243472   -0.2698082685
O        5.2382953577    0.9699923492   -0.7812879470
O        3.3248514358    0.3173751997    0.7793792716
O        3.6867629287    2.8072991351    0.3955302777
H        1.0861911463   -0.1082176009   -0.1192480011
H       -0.6635751564    0.2346987309    0.0120145730
H        1.0491833668    3.0378614793    3.0490388908
H        2.5672949717    2.4007451216    2.4038837713
H        1.8837371505    1.7207659945    3.9354231651
H       -0.6283323567   -1.1820644008   -4.2179825517
H        0.8599075800   -0.5266119507   -4.9035124662
H       -0.7094246128   -0.0063019089   -5.5735299527
H        1.7923794144    2.9957984091   -0.8927510713
H        1.7190298561    2.6499138588   -2.6354692501
H        3.8491170216   -0.4868841412    0.6398849457
28   
torsion grid (60,)
H       -0.3949581440    2.3997965731   -1.3105357356
C        0.5092433382    1.7813482133   -1.2881851803
C        0.5295067800    0.9629678230    0.0008251830
O        0.7187370157    1.9093149511    1.0619076411
C        1.0821058141    1.4033222868    2.2694396293
C        1.7160621249    2.4809367978    3.1059195118
O        0.8999514077    0.2428681200    2.5902143757
O        0.3833506039    0.7493589127   -2.3172982787
C        0.2411007325    1.1282897629   -3.5998344430
C        0.4696359570   -0.0441548155   -4.5280025027
O       -0.0352351911    2.2568171852   -3.9687054415
C        1.7484323505    2.6580121192   -1.4637452826
O        2.9456725189    1.8974946412   -1.4118061116
P        4.0303336990    2.1170011204   -0.1442110067
O        5.3776293646    1.7388700221   -0.6811705510
O        3.5482331413    0.8786291526    0.8806201120
O        3.6797458237    3.3985109734    0.5585379890
H        1.3670711682    0.2649840135   -0.0051517886
H       -0.4089560714    0.4147468864    0.1325496110
H        1.0266690200    3.3247372976    3.2185702023
H        2.5976183354    2.8447302328    2.5636335487
H        1.9842137511    2.0789686703    4.0839478586
H       -0.0092880277   -0.9471853920   -4.1408603596
H        1.5461654889   -0.2370848615   -4.5807177001
H        0.0943284301    0.1951027230   -5.5237365572
H        1.7383471904    3.4161484191   -0.6749420565
H        1.6986710352    3.1620939459   -2.4327376151
H        4.1413504779    0.1285506212    0.7171336132
28   
torsion grid (75,)
H       -0.7397396815    2.3464983426   -1.2304562067
C        0.1559739185    1.7139568434   -1.2359628614
C        0.1699312863    0.8683931570    0.0386056426
O        0.4103429449    1.7798589550    1.1200986638
C        0.7965583605    1.2300357575    2.3018744501
C        1.5029283558    2.2600858939    3.1398657004
O        0.5840139284    0.0687924088    2.5996302188
O       -0.0108222534    0.6909572630   -2.2691109175
C        0.1202182870    1.0178543197   -3.5695825388
C        0.4203061560   -0.2119822939   -4.3964076261
O        0.0054074896    2.1424951251   -4.0229405474
C        1.4126602733    2.5677874037   -1.3947178257
O        2.5845076444    1.7659059171   -1.4312812214
P        3.7129942709    1.8698879874   -0.1875399641
O        5.0240085073    1.4548704919   -0.7829403823
O        3.1998865523    0.6081981907    0.7929548127
O        3.4444477559    3.1302845341    0.5858873897
H        0.9828651141    0.1432298325    0.0001258388
H       -0.7840250671    0.3487457398    0.1741217424
H        0.8644440637    3.1395012290    3.2761576794
H        2.3920182596    2.5825609564    2.5830116527
H        1.7690669362    1.8308889619    4.1068419698
H       -0.1718771480   -1.0658509758   -4.0574783522
H        1.4769851580   -0.4628041947   -4.2562187961
H        0.2328466170   -0.0048301862   -5.4508022965
H        1.4479159010    3.2655672449   -0.5530856072
H        1.3550140812    3.1400156360   -2.3228104690
H        3.7548597351   -0.1587882732    0.5810139030
28   
torsion grid (90,)
H       -0.7472569184    2.3969344398   -1.0717056640
C        0.1649020786    1.7883499930   -1.1016698096
C        0.2331493808    0.9546694418    0.1812932502
O        0.4897536095    1.8764065087    1.2511234350
C        0.9324636208    1.3399357201    2.4193829073
C        1.6557520982    2.3859927257    3.2224044777
O        0.7525015312    0.1769978904    2.7313806203
O       -0.0133098530    0.7455811088   -2.1135566473
C        0.3449397061    0.9514581137   -3.4008295989
C        0.7483659362   -0.3508752230   -4.0524018523
O        0.3285166948    2.0285350516   -3.9662373324
C        1.3949529624    2.6718580916   -1.2938903197
O        2.5773065213    1.8886844401   -1.3892486473
P        3.7534098854    1.9985740288   -0.1898233436
O        5.0424091852    1.5895915874   -0.8354256445
O        3.2857861973    0.7336974917    0.8097224634
O        3.5067099774    3.2575331772    0.5930958168
H        1.0575758618    0.2443798156    0.1220536748
H       -0.7064223407    0.4186465704    0.3488300247
H        1.0128032918    3.2597799770    3.3729516444
H        2.5210802545    2.7124673419    2.6313079429
H        1.9613235170    1.9694430288    4.1832423151
H        0.1033664606   -1.1703298310   -3.7251777594
H        1.7699181671   -0.5777515114   -3.7294486726
H        0.7253351180   -0.2477339631   -5.1381565706
H        1.4498124969    3.3520361868   -0.4393502871
H        1.2942023384    3.2596463441   -2.2077992133
H        3.8457446782   -0.0259345435    0.5848804337
28   
torsion grid (105,)
H       -0.7504612349    2.4586854083   -0.7452501055
C        0.1450921422    1.8364992026   -0.8635976520
C        0.3088697172    0.9902188963    0.4034989399
O        0.6701282982    1.8981812165    1.4557427929
C        1.1986028729    1.3450122517    2.5793153678
C        2.0079890826    2.3713704575    3.3238078617
O        1.0231283398    0.1835854298    2.8994052734
O       -0.1483025342    0.8120750551   -1.8674354247
C        0.3552277967    0.8885805805   -3.1279969479
C        0.8021689584   -0.4698680918   -3.6111617327
O        0.4087210543    1.9073958107   -3.7876738606
C        1.3702064615    2.6979370349   -1.1507071556
O        2.5189218526    1.8833528797   -1.3499715805
P        3.8019607275    1.9594739672   -0.2619665076
O        5.0150699696    1.5148890249   -1.0210912564
O        3.3926775725    0.7046270789    0.7753984358
O        3.6602450631    3.2238063028    0.5375033200
H        1.1134988054    0.2676250086    0.2695867899
H       -0.6219582345    0.4679186787    0.6454889235
H        1.3997496507    3.2590523540    3.5274786463
H        2.8301682863    2.6802871588    2.6656654391
H        2.3810419696    1.9444363167    4.2558289574
H        0.1213414666   -1.2532147903   -3.2684035375
H        1.7865138143   -0.6586978932   -3.1695288408
H        0.8863454262   -0.4735596125   -4.6989096033
H        1.5145689044    3.3676687315   -0.2986748509
H        1.2089684019    3.2952667215   -2.0500590744
H        3.9266031650   -0.0621642698    0.5145724948
28   
torsion grid (120,)
H       -0.8414024303    2.5645910577   -0.9291277318
C        0.0356991920    1.9225565274   -1.0742132176
C        0.1572880897    0.9992737489    0.1421913401
O        0.5157129823    1.8359346035    1.2535761095
C        0.9940483548    1.2070715465    2.3588125441
C        1.7988938044    2.1704940494    3.1881002696
O        0.7830695637    0.0336439475    2.6058959927
O       -0.2853017836    0.9905245813   -2.1550073073
C        0.4590893781    0.9529687584   -3.3048137923
C        1.0059243962   -0.4271323605   -3.5679721946
O        0.6111677146    1.9090507849   -4.0355927224
C        1.2848745393    2.7658047618   -1.2957448402
O        2.4196511206    1.9299243180   -1.4897360397
P        3.6761244963    1.9314535426   -0.3683899377
O        4.9018969131    1.5034665347   -1.1166518929
O        3.2199081505    0.6299602909    0.5891427794
O        3.5328511567    3.1580168849    0.4868782032
H        0.9489774062    0.2673226608   -0.0167555253
H       -0.7894562384    0.4851132654    0.3338884272
H        1.1975117653    3.0522073194    3.4339995863
H        2.6422866950    2.5083776984    2.5729373118
H        2.1407737378    1.6785742277    4.0998053737
H        0.2746683807   -1.1952605705   -3.3030071082
H        1.8797963989   -0.5472194992   -2.9186804068
H        1.3141717050   -0.5213525880   -4.6103827174
H        1.4230285408    3.4062581363   -0.4205428873
H        1.1617995405    3.3919428567   -2.1831118132
H        3.7797546738   -0.1185324123    0.3297308132
28   
torsion grid (135,)
H       -0.5227256291    2.4503269695   -0.7755914805
C        0.1691233055    1.6320622778   -1.0035069254
C        0.2303542603    0.6673980486    0.1740494851
O        0.6455703325    1.4638822255    1.2921760269
C        1.0319827301    0.7966615578    2.4096081876
C        1.7878244034    1.7238850625    3.3230544284
O        0.7708295962   -0.3752868554    2.6112039583
O       -0.5308657577    0.9467279373   -2.0899691546
C       -0.0541201132    0.4754238270   -3.2732934529
C        1.3885818653    0.0426365676   -3.3964112422
O       -0.8533074834    0.3389004968   -4.1839014731
C        1.5038473446    2.3311944595   -1.2916261465
O        2.6345874378    1.4838607714   -1.2916543106
P        3.8198433632    1.6168685997   -0.0967452921
O        5.1084596786    1.2263316076   -0.7538546388
O        3.3663504233    0.3390427877    0.8851732349
O        3.5586117846    2.8766350076    0.6769061256
H        0.9687577357   -0.1181310741    0.0016964120
H       -0.7499345723    0.2185713848    0.3583086962
H        1.1389971645    2.5502945490    3.6340234254
H        2.6242802845    2.1491948191    2.7577559403
H        2.1350826633    1.1728177879    4.1979185563
H        1.7535379638   -0.4390343941   -2.4896479652
H        2.0484753797    0.8961007240   -3.5618286004
H        1.4524395605   -0.6294220796   -4.2536398164
H        1.6255155251    3.0989962077   -0.5206070987
H        1.4342666340    2.8373645915   -2.2654581352
H        3.9545959643   -0.4036218758    0.6764769795
28   
torsion grid (150,)
H       -0.2365787703    2.5685925141   -1.0002165727
C        0.2958094534    1.6725792588   -1.3364186373
C        0.4928967221    0.7186251367   -0.1654477745
O        1.2068429007    1.4768862821    0.8211434312
C        1.7494619109    0.7789696777    1.8518723654
C        2.7848939464    1.6187461761    2.5496308666
O        1.4111051679   -0.3541043507    2.1420238097
O       -0.6705863882    1.1010046349   -2.2717642829
C       -0.4087774265    0.3496731189   -3.3826374010
C        0.6936729238   -0.6811017387   -3.3162071191
O       -1.1628953958    0.4593082141   -4.3315668113
C        1.5966332488    2.2373429883   -1.9296898184
O        2.6227758949    1.2952692854   -2.1844110415
P        4.0124214009    1.2352229192   -1.2265468598
O        5.0914665575    0.6882352691   -2.1095651672
O        3.5758673338    0.0049947815   -0.1761356782
O        4.0707393451    2.4992891891   -0.4200612178
H        1.0966735022   -0.1450130647   -0.4474932923
H       -0.4727223216    0.3835460312    0.2255345706
H        2.3220687651    2.5293586021    2.9457552462
H        3.5299167031    1.9209806685    1.8047827895
H        3.2367286438    1.0456124803    3.3602556585
H        0.4823486386   -1.3734645315   -2.4938818175
H        1.6651969634   -0.2247154723   -3.1177219378
H        0.7100750660   -1.2293072629   -4.2589090022
H        1.9659099444    2.9891276744   -1.2250071763
H        1.3469698512    2.7386223051   -2.8746701347
H        4.0350870637   -0.7965285433   -0.4726029986
28   
torsion grid (165,)
H       -0.2122047384    2.5856217271   -1.0546521459
C        0.3157439405    1.7058236689   -1.4371217200
C        0.5187725853    0.7207684915   -0.2905305365
O        1.2440541612    1.4582648056    0.7047742771
C        1.8160255047    0.7332078873    1.7016069896
C        2.8814770818    1.5488357750    2.3817229859
O        1.4812648213   -0.4048700059    1.9750124383
O       -0.6590568366    1.1962716549   -2.3970560408
C       -0.4492826538    0.2774430658   -3.3843475453
C        0.6260175417   -0.7707999835   -3.2115223144
O       -1.2192059065    0.2843914164   -4.3275978241
C        1.6063578269    2.2869402633   -2.0333898018
O        2.6098821298    1.3454235193   -2.3728280871
P        4.0116990337    1.2061692433   -1.4435642002
O        5.0605071434    0.6590296509   -2.3619642334
O        3.5526618294   -0.0502517122   -0.4316978293
O        4.1227969002    2.4358765181   -0.5902981014
H        1.1197667637   -0.1384422038   -0.5852014614
H       -0.4459156057    0.3830859942    0.1016987078
H        2.4480413021    2.4699063264    2.7863400933
H        3.6175526234    1.8353640349    1.6212209399
H        3.3372023901    0.9645965203    3.1821993481
H        0.3666509075   -1.4113199173   -2.3617167952
H        1.6018702629   -0.3239460375   -3.0158329957
H        0.6557719881   -1.3761874559   -4.1181236860
H        2.0077743975    2.9957286044   -1.3023731939
H        1.3330495106    2.8374271897   -2.9431386705
H        4.0051315464   -0.8476415004   -0.7489982809
28   
torsion grid (180,)
H       -0.3800689099    2.4674482174   -1.0700674357
C        0.3139284460    1.7043892620   -1.4375589699
C        0.4846333739    0.6726770318   -0.3244890271
O        0.9490164063    1.4335585590    0.8017284528
C        1.4815832579    0.7253687449    1.8332114098
C        2.3376440048    1.6235464853    2.6832351109
O        1.2693168379   -0.4604235988    2.0073116040
O       -0.4385997888    1.1747098047   -2.5697145272
C       -0.0726493095    0.1825262187   -3.4287401881
C        1.1133385966   -0.7031651394   -3.1184793466
O       -0.7725951145    0.0159443957   -4.4121436281
C        1.5861880674    2.4764426102   -1.8089850453
O        2.7272725374    1.6755243400   -2.0698970847
P        4.0058594373    1.6256559589   -0.9698299684
O        5.2208746480    1.2581007029   -1.7643836980
O        3.5693270913    0.2613816514   -0.0958373666
O        3.8634385588    2.7987201342   -0.0439831397
H        1.2374909437   -0.0775600860   -0.5555786054
H       -0.4709517131    0.1875085372   -0.0992561614
H        1.7483576528    2.4721612417    3.0468641397
H        3.1333979619    2.0240036002    2.0433636384
H        2.7439965281    1.0586891687    3.5232317798
H        0.8469658566   -1.3919218220   -2.3099295863
H        1.9877941945   -0.1286800455   -2.8105102522
H        1.3314089321   -1.2869343805   -4.0135577595
H        1.8045340164    3.1650005424   -0.9870081500
H        1.3667250174    3.0615776913   -2.7112551910
H        4.1526374022   -0.4577333910   -0.3854718281
