18
0 1 C6H7N3OS
C                    -2.074474214643     2.766317134306    -3.198669404296
H                    -2.754446885121     3.233526000240    -3.901600592104
N                    -2.429392454363     2.367797079016    -2.017118215517
N                    -1.398696702338     1.805718783283    -1.304124897677
C                    -0.273979304739     1.791177062327    -1.969294618869
N                     0.939528430116     1.296149990733    -1.531433841663
C                     1.335126125427     0.691849645505    -0.319698882214
O                     2.510529179910     0.351008985410    -0.233237369195
C                     0.339178218137     0.504126189063     0.758847099948
H                    -0.667677317365     0.844670483461     0.567949876726
C                     0.870379018336     0.604717627917     2.189320174106
H                     1.923252153335     0.845490967435     2.290411653674
H                     0.204231007235     1.066214782585     2.911386102929
C                     0.521686516749    -0.736810234691     1.633688410405
H                    -0.390812192333    -1.223557662061     1.963139229554
H                     1.341200143161    -1.393937266630     1.362909003217
H                     1.721317346561     1.359640788888    -2.175032489962
S                    -0.389111580823     2.491179418319    -3.584687346352
