18
0 1 C6H7N3OS
C                     2.706029657478     2.315985930998    -4.833548188252
H                     2.927555689404     2.827163057136    -5.763336392125
N                     3.534154769852     1.512559159496    -4.241902475713
N                     3.041564585772     0.977567227924    -3.075841769712
C                     1.836607862507     1.395848458919    -2.811649597485
N                     1.057673015721     1.050217162828    -1.717706183066
C                     1.401167642406     0.178117191410    -0.667284620249
O                     2.471275724607    -0.394133610139    -0.602736854116
C                     0.341474587935     0.002640054520     0.378538382024
H                     0.683404241812    -0.679446641872     1.148323770713
C                    -1.145783900022    -0.024467053388     0.052596219453
H                    -1.449718529629     0.126129520457    -0.979592336192
H                    -1.747204632206    -0.755190310794     0.583802845893
C                    -0.576029153291     1.132929656397     0.825048597781
H                    -0.785275686253     1.198729799775     1.887940189818
H                    -0.478944254306     2.098844518562     0.337126164166
H                     0.143408267658     1.478776279988    -1.682017514168
S                     1.176035336582     2.520050533167    -4.007979795572
