
  -OEChem-12122420533D

 19 20  0     0  0  0  0  0  0999 V2000
    1.3407    4.0608    2.3864 O   0  0  0  0  0  0  0  0  0  0  0  0
    0.8458    2.8549    1.9878 C   0  0  0  0  0  0  0  0  0  0  0  0
    1.1267    1.8009    2.5245 O   0  0  0  0  0  0  0  0  0  0  0  0
   -0.0574    2.9864    0.8435 C   0  0  0  0  0  0  0  0  0  0  0  0
   -0.7605    2.0131    0.1448 C   0  0  0  0  0  0  0  0  0  0  0  0
   -1.4607    2.7239   -0.8510 C   0  0  0  0  0  0  0  0  0  0  0  0
   -1.2258    4.0412   -0.7948 N   0  0  0  0  0  0  0  0  0  0  0  0
   -0.3743    4.1753    0.2377 N   0  0  0  0  0  0  0  0  0  0  0  0
   -0.0341    5.0940    0.4958 H   0  0  0  0  0  0  0  0  0  0  0  0
   -2.3262    1.9507   -1.7867 C   0  0  0  0  0  0  0  0  0  0  0  0
   -3.3897    2.1842   -1.7079 H   0  0  0  0  0  0  0  0  0  0  0  0
   -1.9995    1.9835   -2.8279 H   0  0  0  0  0  0  0  0  0  0  0  0
   -2.1079    0.1935   -1.2008 S   0  0  0  0  0  0  0  0  0  0  0  0
   -3.3829   -0.2819   -0.6452 O   0  0  0  0  0  0  0  0  0  0  0  0
   -1.4032   -0.5684   -2.2416 O   0  0  0  0  0  0  0  0  0  0  0  0
   -0.9266    0.5370    0.2026 C   0  0  0  0  0  0  0  0  0  0  0  0
   -0.0125   -0.0251    0.0009 H   0  0  0  0  0  0  0  0  0  0  0  0
   -1.3979    0.1744    1.1182 H   0  0  0  0  0  0  0  0  0  0  0  0
    1.9284    3.8866    3.1468 H   0  0  0  0  0  0  0  0  0  0  0  0
  1  2  1  0  0  0  0
  1 19  1  0  0  0  0
  2  3  2  0  0  0  0
  2  4  1  0  0  0  0
  4  5  2  0  0  0  0
  4  8  1  0  0  0  0
  5  6  1  0  0  0  0
  5 16  1  0  0  0  0
  6  7  2  0  0  0  0
  6 10  1  0  0  0  0
  7  8  1  0  0  0  0
  8  9  1  0  0  0  0
 10 11  1  0  0  0  0
 10 12  1  0  0  0  0
 10 13  1  0  0  0  0
 13 14  2  0  0  0  0
 13 15  2  0  0  0  0
 13 16  1  0  0  0  0
 16 17  1  0  0  0  0
 16 18  1  0  0  0  0
M  END
$$$$
