
  -OEChem-12102412493D

 20 20  0     0  0  0  0  0  0999 V2000
    2.8741   -1.6451    2.0449 C   0  0  0  0  0  0  0  0  0  0  0  0
    0.7033   -0.5783    2.0097 C   0  0  0  0  0  0  0  0  0  0  0  0
    2.8872   -1.6638    0.6500 C   0  0  0  0  0  0  0  0  0  0  0  0
    0.7169   -0.5973    0.6147 C   0  0  0  0  0  0  0  0  0  0  0  0
    1.7822   -1.1010    2.7452 C   0  0  0  0  0  0  0  0  0  0  0  0
    1.8099   -1.1375   -0.0574 C   0  0  0  0  0  0  0  0  0  0  0  0
    1.3369   -2.1761   -2.1389 C   0  0  0  0  0  0  0  0  0  0  0  0
    1.4661   -1.9619   -3.6273 C   0  0  0  0  0  0  0  0  0  0  0  0
    1.7409   -1.1388    4.1501 N   0  0  0  0  0  0  0  0  0  0  0  0
    0.8550   -3.1447   -1.5974 O   0  0  0  0  0  0  0  0  0  0  0  0
    1.8521   -1.0977   -1.4632 O   0  0  0  0  0  0  0  0  0  0  0  0
    3.7141   -2.0617    2.5963 H   0  0  0  0  0  0  0  0  0  0  0  0
   -0.1539   -0.1608    2.5335 H   0  0  0  0  0  0  0  0  0  0  0  0
    3.7310   -2.0848    0.1109 H   0  0  0  0  0  0  0  0  0  0  0  0
   -0.1174   -0.1936    0.0482 H   0  0  0  0  0  0  0  0  0  0  0  0
    0.9337   -1.0525   -3.9204 H   0  0  0  0  0  0  0  0  0  0  0  0
    1.0557   -2.8218   -4.1557 H   0  0  0  0  0  0  0  0  0  0  0  0
    2.5181   -1.8250   -3.8940 H   0  0  0  0  0  0  0  0  0  0  0  0
    1.1570   -0.4215    4.5652 H   0  0  0  0  0  0  0  0  0  0  0  0
    2.6543   -1.1565    4.5895 H   0  0  0  0  0  0  0  0  0  0  0  0
  1  3  1  0  0  0  0
  1  5  2  0  0  0  0
  1 12  1  0  0  0  0
  2  4  2  0  0  0  0
  2  5  1  0  0  0  0
  2 13  1  0  0  0  0
  3  6  2  0  0  0  0
  3 14  1  0  0  0  0
  4  6  1  0  0  0  0
  4 15  1  0  0  0  0
  5  9  1  0  0  0  0
  6 11  1  0  0  0  0
  7  8  1  0  0  0  0
  7 10  2  0  0  0  0
  7 11  1  0  0  0  0
  8 16  1  0  0  0  0
  8 17  1  0  0  0  0
  8 18  1  0  0  0  0
  9 19  1  0  0  0  0
  9 20  1  0  0  0  0
M  END
$$$$
