
  -OEChem-12102412493D

 25 26  0     0  0  0  0  0  0999 V2000
   -0.6288   -2.9014    7.9468 C   0  0  0  0  0  0  0  0  0  0  0  0
   -1.2838   -2.5423    6.7639 C   0  0  0  0  0  0  0  0  0  0  0  0
    0.7533   -2.7167    8.0598 C   0  0  0  0  0  0  0  0  0  0  0  0
    2.5597    2.6101    5.9465 C   0  0  0  0  0  0  0  0  0  0  0  0
    0.5216    2.7869    4.6543 C   0  0  0  0  0  0  0  0  0  0  0  0
   -0.5608   -1.9971    5.6983 C   0  0  0  0  0  0  0  0  0  0  0  0
    1.4785   -2.1717    6.9955 C   0  0  0  0  0  0  0  0  0  0  0  0
    2.6328    1.2528    5.6376 C   0  0  0  0  0  0  0  0  0  0  0  0
    0.6011    1.4290    4.3495 C   0  0  0  0  0  0  0  0  0  0  0  0
    1.5009    3.3987    5.4590 C   0  0  0  0  0  0  0  0  0  0  0  0
    0.8222   -1.8031    5.8136 C   0  0  0  0  0  0  0  0  0  0  0  0
    1.6531    0.6440    4.8411 C   0  0  0  0  0  0  0  0  0  0  0  0
    1.3917    4.7499    5.8162 N   0  0  0  0  0  0  0  0  0  0  0  0
    1.7563   -1.1036    4.4391 S   0  0  0  0  0  0  0  0  0  0  0  0
   -1.1916   -3.3258    8.7743 H   0  0  0  0  0  0  0  0  0  0  0  0
   -2.3570   -2.6879    6.6688 H   0  0  0  0  0  0  0  0  0  0  0  0
    1.2683   -2.9982    8.9750 H   0  0  0  0  0  0  0  0  0  0  0  0
    3.3261    3.0642    6.5715 H   0  0  0  0  0  0  0  0  0  0  0  0
   -0.3057    3.3796    4.2687 H   0  0  0  0  0  0  0  0  0  0  0  0
   -1.0647   -1.7195    4.7769 H   0  0  0  0  0  0  0  0  0  0  0  0
    2.5521   -2.0292    7.0777 H   0  0  0  0  0  0  0  0  0  0  0  0
    3.4587    0.6580    6.0174 H   0  0  0  0  0  0  0  0  0  0  0  0
   -0.1599    0.9722    3.7232 H   0  0  0  0  0  0  0  0  0  0  0  0
    0.8614    5.3151    5.1631 H   0  0  0  0  0  0  0  0  0  0  0  0
    2.2713    5.1933    6.0548 H   0  0  0  0  0  0  0  0  0  0  0  0
  1  2  1  0  0  0  0
  1  3  2  0  0  0  0
  1 15  1  0  0  0  0
  2  6  2  0  0  0  0
  2 16  1  0  0  0  0
  3  7  1  0  0  0  0
  3 17  1  0  0  0  0
  4  8  2  0  0  0  0
  4 10  1  0  0  0  0
  4 18  1  0  0  0  0
  5  9  1  0  0  0  0
  5 10  2  0  0  0  0
  5 19  1  0  0  0  0
  6 11  1  0  0  0  0
  6 20  1  0  0  0  0
  7 11  2  0  0  0  0
  7 21  1  0  0  0  0
  8 12  1  0  0  0  0
  8 22  1  0  0  0  0
  9 12  2  0  0  0  0
  9 23  1  0  0  0  0
 10 13  1  0  0  0  0
 11 14  1  0  0  0  0
 12 14  1  0  0  0  0
 13 24  1  0  0  0  0
 13 25  1  0  0  0  0
M  END
$$$$
