21
0 1 C8H10N2O
C                     2.900710492465    -1.747874787517     0.689711383275
C                     0.846285611685    -0.497116485476     0.580023234708
C                     2.838028763930    -1.739407576431     2.081400345273
C                     0.768488793395    -0.490613516694     1.967580989599
C                     1.904151253202    -1.135412471201    -0.087290035195
C                     1.765099077091    -1.114172086439     2.744001805417
C                     1.907209341844    -1.092176528755    -1.584230529318
C                     2.811227409323    -2.053755185853    -3.674391138725
N                     1.662322353319    -1.157680507523     4.138202459420
N                     2.705644379426    -2.005073507190    -2.223606676857
O                     1.215196572172    -0.284766756807    -2.212328645765
H                     3.766938967558    -2.211184368840     0.223288752966
H                     0.087924968471    -0.002512067720    -0.018817705656
H                     3.625803690649    -2.214151433709     2.662620171365
H                    -0.067199139753     0.000425553729     2.462195472306
H                     3.649979066850    -1.449333024031    -4.041736279721
H                     2.951827111269    -3.088827508582    -3.997840537961
H                     1.889842899396    -1.661342819843    -4.107365863992
H                     1.106390609641    -0.414957109094     4.545952090237
H                     2.542042936955    -1.275861950321     4.627032722999
H                     3.183524331359    -2.707465902637    -1.679914812646
