17
0 1 C7H8N2
C                     0.736637315454    -0.444838486739    -3.415574147516
C                     1.006689209813     1.421814337963    -1.912068908464
C                     0.227544284967     0.412808945958    -4.388577655924
C                     0.475663678398     2.278840781204    -2.871753640325
C                     1.121315185017     0.042858580886    -2.153431105798
C                     0.076838023269     1.787604814524    -4.128927898539
C                     1.273113996568    -1.967632759006    -0.978552148424
N                     1.660092300010    -0.759889055168    -1.122355573872
N                    -0.499344205114     2.641112001767    -5.083948949307
H                     0.872914010013    -1.496209472849    -3.655422056636
H                     1.331395796515     1.806389748236    -0.949288791552
H                    -0.048366770596     0.017754339927    -5.364410606084
H                     0.375672733967     3.340065607904    -2.652938599124
H                     1.731093620356    -2.574779188609    -0.195608016961
H                     0.489712682453    -2.440972317553    -1.587105639064
H                    -0.400810736432     2.319732029390    -6.040375759336
H                    -0.215509175914     3.610598508473    -4.997729815325
