
  -OEChem-12122420533D

 26 26  0     0  0  0  0  0  0999 V2000
   -3.2631   -1.5702    1.8783 C   0  0  0  0  0  0  0  0  0  0  0  0
   -0.9896   -1.0718    2.4135 C   0  0  0  0  0  0  0  0  0  0  0  0
   -3.2678   -2.5936    2.8309 C   0  0  0  0  0  0  0  0  0  0  0  0
   -0.9773   -2.0882    3.3658 C   0  0  0  0  0  0  0  0  0  0  0  0
   -2.1291   -0.7811    1.6421 C   0  0  0  0  0  0  0  0  0  0  0  0
   -2.1237   -2.8702    3.5930 C   0  0  0  0  0  0  0  0  0  0  0  0
   -0.9971    0.0515   -0.4452 C   0  0  0  0  0  0  0  0  0  0  0  0
   -1.7698    1.6876    1.3110 C   0  0  0  0  0  0  0  0  0  0  0  0
   -3.4322    0.5081   -0.1319 C   0  0  0  0  0  0  0  0  0  0  0  0
   -2.0907    0.3503    0.6055 C   0  0  0  0  0  0  0  0  0  0  0  0
   -2.0988   -3.9400    4.5085 N   0  0  0  0  0  0  0  0  0  0  0  0
   -4.1757   -1.3977    1.3178 H   0  0  0  0  0  0  0  0  0  0  0  0
   -0.0803   -0.4925    2.2748 H   0  0  0  0  0  0  0  0  0  0  0  0
   -4.1690   -3.1861    2.9792 H   0  0  0  0  0  0  0  0  0  0  0  0
   -0.0711   -2.2834    3.9366 H   0  0  0  0  0  0  0  0  0  0  0  0
   -1.2026   -0.8923   -0.9612 H   0  0  0  0  0  0  0  0  0  0  0  0
   -0.9549    0.8507   -1.1945 H   0  0  0  0  0  0  0  0  0  0  0  0
   -0.0066   -0.0286    0.0128 H   0  0  0  0  0  0  0  0  0  0  0  0
   -2.5322    1.9231    2.0612 H   0  0  0  0  0  0  0  0  0  0  0  0
   -0.8015    1.6551    1.8194 H   0  0  0  0  0  0  0  0  0  0  0  0
   -1.7381    2.5081    0.5845 H   0  0  0  0  0  0  0  0  0  0  0  0
   -4.2485    0.7520    0.5563 H   0  0  0  0  0  0  0  0  0  0  0  0
   -3.3605    1.3231   -0.8600 H   0  0  0  0  0  0  0  0  0  0  0  0
   -3.7044   -0.4002   -0.6798 H   0  0  0  0  0  0  0  0  0  0  0  0
   -3.0115   -4.1770    4.8816 H   0  0  0  0  0  0  0  0  0  0  0  0
   -1.4300   -3.8163    5.2607 H   0  0  0  0  0  0  0  0  0  0  0  0
  1  3  1  0  0  0  0
  1  5  2  0  0  0  0
  1 12  1  0  0  0  0
  2  4  2  0  0  0  0
  2  5  1  0  0  0  0
  2 13  1  0  0  0  0
  3  6  2  0  0  0  0
  3 14  1  0  0  0  0
  4  6  1  0  0  0  0
  4 15  1  0  0  0  0
  5 10  1  0  0  0  0
  6 11  1  0  0  0  0
  7 10  1  0  0  0  0
  7 16  1  0  0  0  0
  7 17  1  0  0  0  0
  7 18  1  0  0  0  0
  8 10  1  0  0  0  0
  8 19  1  0  0  0  0
  8 20  1  0  0  0  0
  8 21  1  0  0  0  0
  9 10  1  0  0  0  0
  9 22  1  0  0  0  0
  9 23  1  0  0  0  0
  9 24  1  0  0  0  0
 11 25  1  0  0  0  0
 11 26  1  0  0  0  0
M  END
$$$$
