21
0 1 C7H9NO3S
C                     2.577013898678    -2.146310518418     1.995797432861
C                     1.084961779582    -0.236925353345     1.953338539523
C                     2.632749996402    -2.136210949098     0.603059583422
C                     1.138271599795    -0.223738077335     0.560537829122
C                     1.804719728460    -1.196229283993     2.690528506488
C                     1.907040439062    -1.178390751972    -0.103450683867
C                     2.669268653296    -0.667638359339    -3.914775284280
N                     1.703499833459    -1.244208596328     4.089175974179
O                     2.864798219736     1.137091878581    -1.949936797909
O                     4.424604315599    -0.857397200670    -1.905110074682
O                     1.925719463247    -1.195183010688    -1.513937179287
S                     3.124021608459    -0.274024073131    -2.224189364468
H                     3.136934204455    -2.895461329707     2.550998266393
H                     0.481763779278     0.502352826270     2.475453959693
H                     3.238978838014    -2.856118835047     0.062713622045
H                     0.598268296537     0.523165053751    -0.012424070178
H                     2.760421269371    -1.744542870836    -4.053036959599
H                     1.649358718182    -0.324123645087    -4.084866852402
H                     3.372597179105    -0.131793738069    -4.553682374431
H                     1.470846644154    -0.356551635141     4.519908438018
H                     2.498872797695    -1.672436533222     4.549172027728
