20
0 1 C8H9NO2
C                     2.917568358571    -1.594104219346     0.633204919951
C                     0.668423764155    -0.704416133146     0.614978030067
C                     2.923844839506    -1.565681846772     2.021726073705
C                     0.667508425166    -0.672792338991     2.004929200564
C                     1.793021789959    -1.164240341688    -0.091015670304
C                     1.796897510308    -1.101699988137     2.731430925605
C                     1.843855574128    -1.215027145504    -1.569029167802
C                     0.683761208883    -0.803166733821    -3.586202491834
N                     1.778053589213    -1.123630880367     4.126031410034
O                     2.800428982119    -1.603636399569    -2.222184608356
O                     0.692605564567    -0.775679422670    -2.147119080029
H                     3.785030213448    -1.948223226849     0.084725875270
H                    -0.205709882910    -0.369561234611     0.066891962966
H                     3.800118934303    -1.905893696171     2.569548732266
H                    -0.211116105464    -0.318719978459     2.540093209981
H                    -0.296795986701    -0.426522239991    -3.878811141601
H                     0.828342461329    -1.822953026680    -3.951284992788
H                     1.475668713277    -0.165610029826    -3.986996924316
H                     1.126169189985    -0.481897073725     4.561171083938
H                     2.687478731221    -1.104287664698     4.571840651199
