
  -OEChem-12122420533D

 20 20  0     0  0  0  0  0  0999 V2000
    1.8720   -1.0777   -0.1202 C   0  0  0  0  0  0  0  0  0  0  0  0
    0.7453   -0.5142    1.9638 C   0  0  0  0  0  0  0  0  0  0  0  0
    2.8980   -1.6793    0.5949 C   0  0  0  0  0  0  0  0  0  0  0  0
    1.7692   -1.1154    2.6824 C   0  0  0  0  0  0  0  0  0  0  0  0
    0.7817   -0.4821    0.5520 C   0  0  0  0  0  0  0  0  0  0  0  0
    2.8458   -1.6916    1.9950 C   0  0  0  0  0  0  0  0  0  0  0  0
    5.3466   -1.0032    3.1719 C   0  0  0  0  0  0  0  0  0  0  0  0
   -0.2664    0.0723   -0.1649 N   0  0  0  0  0  0  0  0  0  0  0  0
    3.6876   -2.8059    4.2486 O   0  0  0  0  0  0  0  0  0  0  0  0
    4.8833   -3.3874    2.0466 O   0  0  0  0  0  0  0  0  0  0  0  0
    4.7388   -0.0281    3.8673 F   0  0  0  0  0  0  0  0  0  0  0  0
    6.4155   -1.4281    3.8508 F   0  0  0  0  0  0  0  0  0  0  0  0
    5.7419   -0.5077    1.9875 F   0  0  0  0  0  0  0  0  0  0  0  0
    4.1540   -2.4534    2.9065 S   0  0  0  0  0  0  0  0  0  0  0  0
    1.9017   -1.0728   -1.2070 H   0  0  0  0  0  0  0  0  0  0  0  0
   -0.0974   -0.0729    2.4904 H   0  0  0  0  0  0  0  0  0  0  0  0
    3.7317   -2.1470    0.0808 H   0  0  0  0  0  0  0  0  0  0  0  0
    1.7379   -1.1510    3.7668 H   0  0  0  0  0  0  0  0  0  0  0  0
   -0.0696    0.3433   -1.1201 H   0  0  0  0  0  0  0  0  0  0  0  0
   -0.8521    0.7355    0.3267 H   0  0  0  0  0  0  0  0  0  0  0  0
  1  3  1  0  0  0  0
  1  5  2  0  0  0  0
  1 15  1  0  0  0  0
  2  4  2  0  0  0  0
  2  5  1  0  0  0  0
  2 16  1  0  0  0  0
  3  6  2  0  0  0  0
  3 17  1  0  0  0  0
  4  6  1  0  0  0  0
  4 18  1  0  0  0  0
  5  8  1  0  0  0  0
  6 14  1  0  0  0  0
  7 11  1  0  0  0  0
  7 12  1  0  0  0  0
  7 13  1  0  0  0  0
  7 14  1  0  0  0  0
  8 19  1  0  0  0  0
  8 20  1  0  0  0  0
  9 14  2  0  0  0  0
 10 14  2  0  0  0  0
M  END
$$$$
