26
1 1 C9H15N2
C                    -0.719759107776    -2.265843030012     3.247094183298
C                    -3.083965073822    -2.649556939785     2.902667791964
C                    -0.768914294207    -1.194780793673     2.367008753142
C                    -3.131543047576    -1.575009066078     2.019655985375
C                    -1.879494553286    -3.022262074414     3.535638794421
C                    -1.974328221290    -0.841460595045     1.746163693006
C                    -1.031487803307     0.052778949635    -0.356822065862
C                    -1.545565127482     1.583485574808     1.519095953285
C                    -3.342333936601     0.586284761096     0.207786474828
N                    -1.820857516677    -4.114440624626     4.365720560698
N                    -1.978289631305     0.326038885582     0.793774547429
H                     0.225921118541    -2.526472024534     3.714164420677
H                    -3.993110588007    -3.210821281592     3.099630619004
H                     0.151190781643    -0.649323038651     2.181279739148
H                    -4.086697832009    -1.341154305831     1.566689125009
H                    -1.354545775452    -0.860644549541    -0.854707631038
H                    -1.059534179597     0.898234568032    -1.045573780974
H                    -0.023391013864    -0.077121656962     0.029572269361
H                    -2.232595947721     1.753022581088     2.347256012522
H                    -0.536314213127     1.449852109832     1.901089492071
H                    -1.570240454437     2.420522724631     0.820037474808
H                    -4.042908772375     0.815669302146     1.008954760330
H                    -3.262980607048     1.440084911426    -0.464402041215
H                    -3.669731145999    -0.289112545273    -0.350567349985
H                    -2.684110677028    -4.496104840558     4.729828438941
H                    -1.019969822100    -4.221235872509     4.974423692069
