22
0 1 C8H12N2
C                     2.631578694397    -1.961915279708     1.988325344811
C                     1.162124209649    -0.069323812713     1.976778248274
C                     2.712538711798    -1.911534116683     0.596196668301
C                     1.239121943892    -0.013948576804     0.584652683326
C                     1.856873349385    -1.042257697275     2.709231512984
C                     2.029204199667    -0.925799625899    -0.147856234952
C                     2.653578787130    -2.013715526676    -2.248614459394
C                     1.141076545935    -0.069233106447    -2.260809210628
N                     1.830302774251    -1.054121294702     4.125214910765
N                     2.148459967455    -0.841707826638    -1.548214267976
H                     3.183249376172    -2.734868926442     2.520625240785
H                     0.547000385968     0.660751387822     2.499980905358
H                     3.321904754044    -2.655537017981     0.096848848907
H                     0.672331108135     0.756988137450     0.076089084055
H                     2.043904673787    -2.917241491099    -2.077577923652
H                     2.671778868897    -1.808760425097    -3.321013032235
H                     3.681979799223    -2.233749749836    -1.945718265978
H                     1.178804838431     0.983962678480    -1.965668373823
H                     1.351050422389    -0.109998944926    -3.331615446908
H                     0.114316724043    -0.436740445550    -2.093466474694
H                     1.988261203242    -1.978680275214     4.512779801853
H                     0.970509988349    -0.671152731030     4.504755977768
