
  -OEChem-12122420533D

 20 20  0     0  0  0  0  0  0999 V2000
    2.9176   -1.5941    0.6332 C   0  0  0  0  0  0  0  0  0  0  0  0
    0.6684   -0.7044    0.6150 C   0  0  0  0  0  0  0  0  0  0  0  0
    2.9238   -1.5657    2.0217 C   0  0  0  0  0  0  0  0  0  0  0  0
    0.6675   -0.6728    2.0049 C   0  0  0  0  0  0  0  0  0  0  0  0
    1.7930   -1.1642   -0.0910 C   0  0  0  0  0  0  0  0  0  0  0  0
    1.7969   -1.1017    2.7314 C   0  0  0  0  0  0  0  0  0  0  0  0
    1.8439   -1.2150   -1.5690 C   0  0  0  0  0  0  0  0  0  0  0  0
    0.6838   -0.8032   -3.5862 C   0  0  0  0  0  0  0  0  0  0  0  0
    1.7781   -1.1236    4.1260 N   0  0  0  0  0  0  0  0  0  0  0  0
    2.8004   -1.6036   -2.2222 O   0  0  0  0  0  0  0  0  0  0  0  0
    0.6926   -0.7757   -2.1471 O   0  0  0  0  0  0  0  0  0  0  0  0
    3.7850   -1.9482    0.0847 H   0  0  0  0  0  0  0  0  0  0  0  0
   -0.2057   -0.3696    0.0669 H   0  0  0  0  0  0  0  0  0  0  0  0
    3.8001   -1.9059    2.5695 H   0  0  0  0  0  0  0  0  0  0  0  0
   -0.2111   -0.3187    2.5401 H   0  0  0  0  0  0  0  0  0  0  0  0
   -0.2968   -0.4265   -3.8788 H   0  0  0  0  0  0  0  0  0  0  0  0
    0.8283   -1.8230   -3.9513 H   0  0  0  0  0  0  0  0  0  0  0  0
    1.4757   -0.1656   -3.9870 H   0  0  0  0  0  0  0  0  0  0  0  0
    1.1262   -0.4819    4.5612 H   0  0  0  0  0  0  0  0  0  0  0  0
    2.6875   -1.1043    4.5718 H   0  0  0  0  0  0  0  0  0  0  0  0
  1  3  1  0  0  0  0
  1  5  2  0  0  0  0
  1 12  1  0  0  0  0
  2  4  2  0  0  0  0
  2  5  1  0  0  0  0
  2 13  1  0  0  0  0
  3  6  2  0  0  0  0
  3 14  1  0  0  0  0
  4  6  1  0  0  0  0
  4 15  1  0  0  0  0
  5  7  1  0  0  0  0
  6  9  1  0  0  0  0
  7 10  2  0  0  0  0
  7 11  1  0  0  0  0
  8 11  1  0  0  0  0
  8 16  1  0  0  0  0
  8 17  1  0  0  0  0
  8 18  1  0  0  0  0
  9 19  1  0  0  0  0
  9 20  1  0  0  0  0
M  END
$$$$
