
  -OEChem-12102412493D

 18 18  0     0  0  0  0  0  0999 V2000
    2.8410   -1.6823    2.0005 C   0  0  0  0  0  0  0  0  0  0  0  0
    0.7270   -0.5299    2.0220 C   0  0  0  0  0  0  0  0  0  0  0  0
    2.8643   -1.6170    0.6110 C   0  0  0  0  0  0  0  0  0  0  0  0
    0.7432   -0.4625    0.6223 C   0  0  0  0  0  0  0  0  0  0  0  0
    1.7699   -1.1362    2.7331 C   0  0  0  0  0  0  0  0  0  0  0  0
    1.8156   -1.0065   -0.0930 C   0  0  0  0  0  0  0  0  0  0  0  0
    0.8863   -0.3877   -2.2067 C   0  0  0  0  0  0  0  0  0  0  0  0
    1.7197   -1.2644    4.1403 N   0  0  0  0  0  0  0  0  0  0  0  0
    1.9349   -0.9944   -1.4646 O   0  0  0  0  0  0  0  0  0  0  0  0
    3.6609   -2.1673    2.5266 H   0  0  0  0  0  0  0  0  0  0  0  0
   -0.1173   -0.1059    2.5620 H   0  0  0  0  0  0  0  0  0  0  0  0
    3.6937   -2.0372    0.0492 H   0  0  0  0  0  0  0  0  0  0  0  0
   -0.0856    0.0177    0.1139 H   0  0  0  0  0  0  0  0  0  0  0  0
    1.1660   -0.4834   -3.2572 H   0  0  0  0  0  0  0  0  0  0  0  0
    0.7789    0.6762   -1.9569 H   0  0  0  0  0  0  0  0  0  0  0  0
   -0.0722   -0.8966   -2.0401 H   0  0  0  0  0  0  0  0  0  0  0  0
    1.1672   -0.5398    4.5862 H   0  0  0  0  0  0  0  0  0  0  0  0
    2.6387   -1.3069    4.5680 H   0  0  0  0  0  0  0  0  0  0  0  0
  1  3  1  0  0  0  0
  1  5  2  0  0  0  0
  1 10  1  0  0  0  0
  2  4  2  0  0  0  0
  2  5  1  0  0  0  0
  2 11  1  0  0  0  0
  3  6  2  0  0  0  0
  3 12  1  0  0  0  0
  4  6  1  0  0  0  0
  4 13  1  0  0  0  0
  5  8  1  0  0  0  0
  6  9  1  0  0  0  0
  7  9  1  0  0  0  0
  7 14  1  0  0  0  0
  7 15  1  0  0  0  0
  7 16  1  0  0  0  0
  8 17  1  0  0  0  0
  8 18  1  0  0  0  0
M  END
$$$$
