26
0 1 C10H15N
C                    -3.263120648505    -1.570185102501     1.878342703835
C                    -0.989582080074    -1.071768698498     2.413504670628
C                    -3.267772555403    -2.593568779080     2.830919326315
C                    -0.977299591258    -2.088164383632     3.365833632881
C                    -2.129130669147    -0.781053534751     1.642094882531
C                    -2.123677545617    -2.870189503617     3.592990015077
C                    -0.997061566021     0.051501637559    -0.445150775378
C                    -1.769848326138     1.687587935118     1.311042201631
C                    -3.432183009286     0.508118984579    -0.131926767928
C                    -2.090731776830     0.350293797118     0.605457692830
N                    -2.098804660934    -3.940046268978     4.508460763295
H                    -4.175655251677    -1.397654487822     1.317824634190
H                    -0.080295963503    -0.492467388508     2.274809937847
H                    -4.168952200992    -3.186051464755     2.979195823223
H                    -0.071074701350    -2.283390578068     3.936552969123
H                    -1.202566980149    -0.892255564066    -0.961211942582
H                    -0.954942356826     0.850703971514    -1.194499033268
H                    -0.006557754498    -0.028575415915     0.012750180926
H                    -2.532230694985     1.923053087452     2.061185939871
H                    -0.801466953119     1.655090892730     1.819400580688
H                    -1.738136101179     2.508076559957     0.584538661512
H                    -4.248480328362     0.752009976925     0.556270681682
H                    -3.360509199957     1.323072325835    -0.860017818511
H                    -3.704374150145    -0.400211056942    -0.679827485419
H                    -3.011502086643    -4.177036705828     4.881638119791
H                    -1.430038889548    -3.816339194788     5.260709870110
