20
0 1 C8F3H6NO2
C                     2.032692557007    -0.675966523821    -0.002640631324
C                     0.485952238067    -0.655116015661     1.858215395709
C                     3.054379961330    -1.111864942594     0.839811821734
C                     1.503984054468    -1.089697322939     2.705708616248
C                     0.735502394382    -0.440153336928     0.490148999647
C                     2.778097650911    -1.310376560201     2.191104903626
C                     4.968217596995    -1.293477402398     3.143505744019
C                     5.768425214188    -2.024465221950     4.254399694057
N                    -0.268534261745     0.059062442169    -0.350776898869
O                     5.434963073028    -0.409290007467     2.471995474407
O                     3.736911886260    -1.821022143707     3.095697493510
F                     5.179904832838    -1.848248665745     5.457031974674
F                     7.016678756445    -1.548858472437     4.320083730663
F                     5.828109021529    -3.350487520231     4.006983275508
H                     2.246514377300    -0.510501472676    -1.055981860608
H                    -0.508023653304    -0.476395297642     2.261348362829
H                     4.048559294880    -1.286131925287     0.445149579438
H                     1.315057137921    -1.263342273697     3.760867982009
H                    -1.213196165897    -0.148729483185    -0.048256024390
H                    -0.141769665133    -0.158277337637    -1.332508899611
