14
-1 1 C6H6NS
C                     1.841859798153    -1.087002985421    -0.111657518599
C                     0.729471975557    -0.538234285010     1.940992660569
C                     2.906465162336    -1.631163409594     0.613153961513
C                     1.796163996610    -1.083244117982     2.662063947907
C                     0.733183571595    -0.525284720694     0.538442712038
C                     2.939454297196    -1.653812945642     2.035629538152
N                    -0.389775068502    -0.011299076471    -0.207400360677
S                     4.280221732152    -2.323844445415     2.941371739068
H                     1.873288945054    -1.100422406181    -1.203295371412
H                    -0.122203941031    -0.116189847323     2.478903041500
H                     3.754266041213    -2.053921241661     0.078174317437
H                     1.764845363077    -1.072210704347     3.749532958530
H                    -0.068702876174     0.373086338016    -1.093408299840
H                    -0.825627517650     0.751185238367     0.306913246415
