
  -OEChem-12102412493D

 18 18  0     0  0  0  0  0  0999 V2000
    2.8092   -1.8937    2.1035 C   0  0  0  0  0  0  0  0  0  0  0  0
    0.8929   -0.4326    1.8854 C   0  0  0  0  0  0  0  0  0  0  0  0
    2.9312   -1.9339    0.7152 C   0  0  0  0  0  0  0  0  0  0  0  0
    1.0217   -0.4777    0.4979 C   0  0  0  0  0  0  0  0  0  0  0  0
    1.7882   -1.1387    2.7104 C   0  0  0  0  0  0  0  0  0  0  0  0
    2.0451   -1.2224   -0.1073 C   0  0  0  0  0  0  0  0  0  0  0  0
    3.3164    0.1378   -2.1676 C   0  0  0  0  0  0  0  0  0  0  0  0
    1.6234   -1.1468    4.1028 N   0  0  0  0  0  0  0  0  0  0  0  0
    2.1969   -1.2893   -1.8896 S   0  0  0  0  0  0  0  0  0  0  0  0
    3.5027   -2.4581    2.7238 H   0  0  0  0  0  0  0  0  0  0  0  0
    0.0879    0.1451    2.3353 H   0  0  0  0  0  0  0  0  0  0  0  0
    3.7211   -2.5259    0.2610 H   0  0  0  0  0  0  0  0  0  0  0  0
    0.3193    0.0681   -0.1262 H   0  0  0  0  0  0  0  0  0  0  0  0
    3.4883    0.2037   -3.2456 H   0  0  0  0  0  0  0  0  0  0  0  0
    4.2718   -0.0137   -1.6593 H   0  0  0  0  0  0  0  0  0  0  0  0
    2.8562    1.0656   -1.8191 H   0  0  0  0  0  0  0  0  0  0  0  0
    1.1468   -0.3328    4.4736 H   0  0  0  0  0  0  0  0  0  0  0  0
    2.4694   -1.3457    4.6242 H   0  0  0  0  0  0  0  0  0  0  0  0
  1  3  1  0  0  0  0
  1  5  2  0  0  0  0
  1 10  1  0  0  0  0
  2  4  2  0  0  0  0
  2  5  1  0  0  0  0
  2 11  1  0  0  0  0
  3  6  2  0  0  0  0
  3 12  1  0  0  0  0
  4  6  1  0  0  0  0
  4 13  1  0  0  0  0
  5  8  1  0  0  0  0
  6  9  1  0  0  0  0
  7  9  1  0  0  0  0
  7 14  1  0  0  0  0
  7 15  1  0  0  0  0
  7 16  1  0  0  0  0
  8 17  1  0  0  0  0
  8 18  1  0  0  0  0
M  END
$$$$
