
  -OEChem-12122420533D

 19 19  0     0  0  0  0  0  0999 V2000
    1.8443   -1.0670   -0.1338 C   0  0  0  0  0  0  0  0  0  0  0  0
    0.7167   -0.5116    1.9442 C   0  0  0  0  0  0  0  0  0  0  0  0
    2.8951   -1.6269    0.5848 C   0  0  0  0  0  0  0  0  0  0  0  0
    1.7667   -1.0711    2.6643 C   0  0  0  0  0  0  0  0  0  0  0  0
    0.7422   -0.4951    0.5344 C   0  0  0  0  0  0  0  0  0  0  0  0
    2.8561   -1.6208    1.9821 C   0  0  0  0  0  0  0  0  0  0  0  0
   -0.3350    0.0163   -0.1868 N   0  0  0  0  0  0  0  0  0  0  0  0
    5.2696   -0.9933    3.1239 N   0  0  0  0  0  0  0  0  0  0  0  0
    3.7191   -2.6766    4.2369 O   0  0  0  0  0  0  0  0  0  0  0  0
    4.9143   -3.2654    2.0342 O   0  0  0  0  0  0  0  0  0  0  0  0
    4.2122   -2.3139    2.9032 S   0  0  0  0  0  0  0  0  0  0  0  0
    1.8663   -1.0804   -1.2211 H   0  0  0  0  0  0  0  0  0  0  0  0
   -0.1374   -0.0935    2.4718 H   0  0  0  0  0  0  0  0  0  0  0  0
    3.7352   -2.0813    0.0691 H   0  0  0  0  0  0  0  0  0  0  0  0
    1.7385   -1.0978    3.7490 H   0  0  0  0  0  0  0  0  0  0  0  0
   -0.1275    0.3065   -1.1347 H   0  0  0  0  0  0  0  0  0  0  0  0
   -0.9084    0.6915    0.3044 H   0  0  0  0  0  0  0  0  0  0  0  0
    5.3862   -0.8309    4.1235 H   0  0  0  0  0  0  0  0  0  0  0  0
    6.1646   -1.2144    2.6891 H   0  0  0  0  0  0  0  0  0  0  0  0
  1  3  1  0  0  0  0
  1  5  2  0  0  0  0
  1 12  1  0  0  0  0
  2  4  2  0  0  0  0
  2  5  1  0  0  0  0
  2 13  1  0  0  0  0
  3  6  2  0  0  0  0
  3 14  1  0  0  0  0
  4  6  1  0  0  0  0
  4 15  1  0  0  0  0
  5  7  1  0  0  0  0
  6 11  1  0  0  0  0
  7 16  1  0  0  0  0
  7 17  1  0  0  0  0
  8 11  1  0  0  0  0
  8 18  1  0  0  0  0
  8 19  1  0  0  0  0
  9 11  2  0  0  0  0
 10 11  2  0  0  0  0
M  END
$$$$
