
  -OEChem-12102412493D

 25 26  0     0  0  0  0  0  0999 V2000
   -2.3227   -1.7078    4.0977 C   0  0  0  0  0  0  0  0  0  0  0  0
   -1.4478   -2.7471    4.4231 C   0  0  0  0  0  0  0  0  0  0  0  0
   -1.8399   -0.3928    4.0633 C   0  0  0  0  0  0  0  0  0  0  0  0
    4.2750   -3.4025    4.6049 C   0  0  0  0  0  0  0  0  0  0  0  0
    3.7201   -3.1371    6.9443 C   0  0  0  0  0  0  0  0  0  0  0  0
   -0.1021   -2.4917    4.7135 C   0  0  0  0  0  0  0  0  0  0  0  0
   -0.5023   -0.1212    4.3499 C   0  0  0  0  0  0  0  0  0  0  0  0
    3.3270   -2.4342    4.2706 C   0  0  0  0  0  0  0  0  0  0  0  0
    2.7723   -2.1689    6.6093 C   0  0  0  0  0  0  0  0  0  0  0  0
    4.4860   -3.7678    5.9469 C   0  0  0  0  0  0  0  0  0  0  0  0
    0.3651   -1.1729    4.6749 C   0  0  0  0  0  0  0  0  0  0  0  0
    2.5784   -1.8179    5.2732 C   0  0  0  0  0  0  0  0  0  0  0  0
    5.3964   -4.7878    6.2787 N   0  0  0  0  0  0  0  0  0  0  0  0
    1.6711   -0.8125    4.9440 O   0  0  0  0  0  0  0  0  0  0  0  0
   -3.3651   -1.9165    3.8740 H   0  0  0  0  0  0  0  0  0  0  0  0
   -1.8087   -3.7722    4.4536 H   0  0  0  0  0  0  0  0  0  0  0  0
   -2.5084    0.4268    3.8118 H   0  0  0  0  0  0  0  0  0  0  0  0
    4.8554   -3.8812    3.8190 H   0  0  0  0  0  0  0  0  0  0  0  0
    3.8665   -3.4085    7.9877 H   0  0  0  0  0  0  0  0  0  0  0  0
    0.5690   -3.3056    4.9650 H   0  0  0  0  0  0  0  0  0  0  0  0
   -0.1115    0.8920    4.3278 H   0  0  0  0  0  0  0  0  0  0  0  0
    3.1654   -2.1505    3.2345 H   0  0  0  0  0  0  0  0  0  0  0  0
    2.1822   -1.6803    7.3793 H   0  0  0  0  0  0  0  0  0  0  0  0
    5.7666   -4.7175    7.2200 H   0  0  0  0  0  0  0  0  0  0  0  0
    6.1480   -4.9013    5.6077 H   0  0  0  0  0  0  0  0  0  0  0  0
  1  2  1  0  0  0  0
  1  3  2  0  0  0  0
  1 15  1  0  0  0  0
  2  6  2  0  0  0  0
  2 16  1  0  0  0  0
  3  7  1  0  0  0  0
  3 17  1  0  0  0  0
  4  8  2  0  0  0  0
  4 10  1  0  0  0  0
  4 18  1  0  0  0  0
  5  9  1  0  0  0  0
  5 10  2  0  0  0  0
  5 19  1  0  0  0  0
  6 11  1  0  0  0  0
  6 20  1  0  0  0  0
  7 11  2  0  0  0  0
  7 21  1  0  0  0  0
  8 12  1  0  0  0  0
  8 22  1  0  0  0  0
  9 12  2  0  0  0  0
  9 23  1  0  0  0  0
 10 13  1  0  0  0  0
 11 14  1  0  0  0  0
 12 14  1  0  0  0  0
 13 24  1  0  0  0  0
 13 25  1  0  0  0  0
M  END
$$$$
