
  -OEChem-12122420533D

 15 15  0     0  0  0  0  0  0999 V2000
    1.9016   -0.9972   -0.1025 C   0  0  0  0  0  0  0  0  0  0  0  0
    0.7719   -0.4330    1.9506 C   0  0  0  0  0  0  0  0  0  0  0  0
    2.9140   -1.6198    0.6261 C   0  0  0  0  0  0  0  0  0  0  0  0
    1.7859   -1.0564    2.6796 C   0  0  0  0  0  0  0  0  0  0  0  0
    0.8103   -0.3941    0.5470 C   0  0  0  0  0  0  0  0  0  0  0  0
    2.8697   -1.6584    2.0272 C   0  0  0  0  0  0  0  0  0  0  0  0
   -0.1782    0.2902   -0.1857 N   0  0  0  0  0  0  0  0  0  0  0  0
    4.2063   -2.4790    2.8861 S   0  0  0  0  0  0  0  0  0  0  0  0
    1.9623   -0.9753   -1.1887 H   0  0  0  0  0  0  0  0  0  0  0  0
   -0.0563    0.0326    2.4810 H   0  0  0  0  0  0  0  0  0  0  0  0
    3.7438   -2.0789    0.0943 H   0  0  0  0  0  0  0  0  0  0  0  0
    1.7210   -1.0686    3.7649 H   0  0  0  0  0  0  0  0  0  0  0  0
   -1.0748    0.3391    0.2857 H   0  0  0  0  0  0  0  0  0  0  0  0
   -0.2948   -0.0534   -1.1326 H   0  0  0  0  0  0  0  0  0  0  0  0
    3.7512   -2.2632    4.1366 H   0  0  0  0  0  0  0  0  0  0  0  0
  1  3  1  0  0  0  0
  1  5  2  0  0  0  0
  1  9  1  0  0  0  0
  2  4  2  0  0  0  0
  2  5  1  0  0  0  0
  2 10  1  0  0  0  0
  3  6  2  0  0  0  0
  3 11  1  0  0  0  0
  4  6  1  0  0  0  0
  4 12  1  0  0  0  0
  5  7  1  0  0  0  0
  6  8  1  0  0  0  0
  7 13  1  0  0  0  0
  7 14  1  0  0  0  0
  8 15  1  0  0  0  0
M  END
$$$$
