15
0 1 C6H7NS
C                     1.901573482840    -0.997167666052    -0.102542753360
C                     0.771889058605    -0.432984356292     1.950607074931
C                     2.913965571951    -1.619794857447     0.626113516695
C                     1.785877791779    -1.056414933945     2.679558027898
C                     0.810343832035    -0.394126503289     0.546964026202
C                     2.869747831150    -1.658447781284     2.027246968961
N                    -0.178248818949     0.290211794509    -0.185665200514
S                     4.206301036387    -2.478953181041     2.886141381296
H                     1.962292995818    -0.975287627753    -1.188739939474
H                    -0.056328051227     0.032590548001     2.481025751213
H                     3.743817564191    -2.078887658416     0.094263908193
H                     1.721045915694    -1.068589962744     3.764855639214
H                    -1.074789776486     0.339107509478     0.285688181333
H                    -0.294849217828    -0.053433663556    -1.132587257575
H                     3.751221187294    -2.263222200499     4.136567291256
