19
0 1 C6H8N2O2S
C                     1.844275608539    -1.067013210452    -0.133817417558
C                     0.716745126055    -0.511644341989     1.944155552758
C                     2.895081279926    -1.626877894412     0.584755259036
C                     1.766724079761    -1.071083091212     2.664263398899
C                     0.742159745323    -0.495080052816     0.534413149289
C                     2.856073130011    -1.620753964683     1.982102289607
N                    -0.335034924623     0.016321285706    -0.186751061567
N                     5.269558406294    -0.993263200796     3.123915534887
O                     3.719073438908    -2.676620088943     4.236866454953
O                     4.914265345064    -3.265375975318     2.034157658200
S                     4.212188736117    -2.313869153362     2.903178723145
H                     1.866312076913    -1.080393974818    -1.221083414636
H                    -0.137401275509    -0.093501908885     2.471796572569
H                     3.735186361087    -2.081253535640     0.069074787209
H                     1.738534264696    -1.097781071052     3.748997510570
H                    -0.127497692260     0.306488629330    -1.134669850363
H                    -0.908376894871     0.691531477707     0.304350488810
H                     5.386231588206    -0.830879416254     4.123495666925
H                     6.164634876484    -1.214371669569     2.689069818924
