19
0 1 C8H9NO
C                     2.902851982676    -1.646582982625     0.633394423602
C                     0.921011604038    -0.269812589841     0.613895740960
C                     2.802026785081    -1.784958478670     2.009758492956
C                     0.810119450314    -0.400708049595     1.994648086419
C                     1.967070704015    -0.886891845025    -0.094940540633
C                     1.751464127744    -1.160567544923     2.716334822728
C                     2.125439631643    -0.770721138042    -1.569501982348
C                     1.106045157466     0.044998213685    -2.350603698683
N                     1.615439210410    -1.342747044567     4.091532903016
O                     3.057296124644    -1.318682509825    -2.155125737606
H                     3.711660137154    -2.123006554205     0.087768437852
H                     0.179321757494     0.324898466359     0.089259944988
H                     3.532732055754    -2.380248438863     2.553725407607
H                    -0.009262093466     0.081341607088     2.523765034388
H                     0.096500258711    -0.360058497808    -2.221390138734
H                     1.371440504042     0.019884288783    -3.408170450329
H                     1.089068999087     1.085115600814    -2.007176960143
H                     1.087335229332    -0.627049869310     4.576272076413
H                     2.465511280832    -1.591033292865     4.583333305985
