19
0 1 C7H10N2
C                     2.872562937492    -1.651453233332     2.007207694756
C                     0.799241244354    -0.437857999026     1.950243704816
C                     2.883712277979    -1.706522805901     0.609007768108
C                     0.800983639697    -0.502090634837     0.559507171836
C                     1.835141819379    -1.018449114966     2.703397466531
C                     1.843251941683    -1.137042654517    -0.143499640687
C                     2.989810662977    -1.557669098366    -2.293137212648
N                     1.861953826324    -0.897344285585     4.114794929935
N                     1.785351138744    -1.219795227968    -1.548730459177
H                     3.695081311483    -2.101011419863     2.560723241749
H                    -0.016930966646     0.070888457431     2.459991057632
H                     3.712259229258    -2.202943952522     0.114675056391
H                    -0.023482714983    -0.057534585851     0.004728357130
H                     2.781689271892    -1.457752376331    -3.361572846150
H                     3.855902197592    -0.923440765564    -2.042305177458
H                     3.268412473529    -2.601062547521    -2.111111698280
H                     2.382513608372    -1.644881270426     4.562088793640
H                     0.933578546771    -0.843013555530     4.521173594893
H                     1.285681727775    -0.436375651948    -1.952408161318
