
  -OEChem-12102412493D

 19 19  0     0  0  0  0  0  0999 V2000
    2.9029   -1.6466    0.6334 C   0  0  0  0  0  0  0  0  0  0  0  0
    0.9210   -0.2698    0.6139 C   0  0  0  0  0  0  0  0  0  0  0  0
    2.8020   -1.7850    2.0098 C   0  0  0  0  0  0  0  0  0  0  0  0
    0.8101   -0.4007    1.9946 C   0  0  0  0  0  0  0  0  0  0  0  0
    1.9671   -0.8869   -0.0949 C   0  0  0  0  0  0  0  0  0  0  0  0
    1.7515   -1.1606    2.7163 C   0  0  0  0  0  0  0  0  0  0  0  0
    2.1254   -0.7707   -1.5695 C   0  0  0  0  0  0  0  0  0  0  0  0
    1.1060    0.0450   -2.3506 C   0  0  0  0  0  0  0  0  0  0  0  0
    1.6154   -1.3427    4.0915 N   0  0  0  0  0  0  0  0  0  0  0  0
    3.0573   -1.3187   -2.1551 O   0  0  0  0  0  0  0  0  0  0  0  0
    3.7117   -2.1230    0.0878 H   0  0  0  0  0  0  0  0  0  0  0  0
    0.1793    0.3249    0.0893 H   0  0  0  0  0  0  0  0  0  0  0  0
    3.5327   -2.3802    2.5537 H   0  0  0  0  0  0  0  0  0  0  0  0
   -0.0093    0.0813    2.5238 H   0  0  0  0  0  0  0  0  0  0  0  0
    0.0965   -0.3601   -2.2214 H   0  0  0  0  0  0  0  0  0  0  0  0
    1.3714    0.0199   -3.4082 H   0  0  0  0  0  0  0  0  0  0  0  0
    1.0891    1.0851   -2.0072 H   0  0  0  0  0  0  0  0  0  0  0  0
    1.0873   -0.6270    4.5763 H   0  0  0  0  0  0  0  0  0  0  0  0
    2.4655   -1.5910    4.5833 H   0  0  0  0  0  0  0  0  0  0  0  0
  1  3  1  0  0  0  0
  1  5  2  0  0  0  0
  1 11  1  0  0  0  0
  2  4  2  0  0  0  0
  2  5  1  0  0  0  0
  2 12  1  0  0  0  0
  3  6  2  0  0  0  0
  3 13  1  0  0  0  0
  4  6  1  0  0  0  0
  4 14  1  0  0  0  0
  5  7  1  0  0  0  0
  6  9  1  0  0  0  0
  7  8  1  0  0  0  0
  7 10  2  0  0  0  0
  8 15  1  0  0  0  0
  8 16  1  0  0  0  0
  8 17  1  0  0  0  0
  9 18  1  0  0  0  0
  9 19  1  0  0  0  0
M  END
$$$$
