
  -OEChem-12102412493D

 17 17  0     0  0  0  0  0  0999 V2000
    0.7366   -0.4448   -3.4156 C   0  0  0  0  0  0  0  0  0  0  0  0
    1.0067    1.4218   -1.9121 C   0  0  0  0  0  0  0  0  0  0  0  0
    0.2275    0.4128   -4.3886 C   0  0  0  0  0  0  0  0  0  0  0  0
    0.4757    2.2788   -2.8718 C   0  0  0  0  0  0  0  0  0  0  0  0
    1.1213    0.0429   -2.1534 C   0  0  0  0  0  0  0  0  0  0  0  0
    0.0768    1.7876   -4.1289 C   0  0  0  0  0  0  0  0  0  0  0  0
    1.2731   -1.9676   -0.9786 C   0  0  0  0  0  0  0  0  0  0  0  0
    1.6601   -0.7599   -1.1224 N   0  0  0  0  0  0  0  0  0  0  0  0
   -0.4993    2.6411   -5.0839 N   0  0  0  0  0  0  0  0  0  0  0  0
    0.8729   -1.4962   -3.6554 H   0  0  0  0  0  0  0  0  0  0  0  0
    1.3314    1.8064   -0.9493 H   0  0  0  0  0  0  0  0  0  0  0  0
   -0.0484    0.0178   -5.3644 H   0  0  0  0  0  0  0  0  0  0  0  0
    0.3757    3.3401   -2.6529 H   0  0  0  0  0  0  0  0  0  0  0  0
    1.7311   -2.5748   -0.1956 H   0  0  0  0  0  0  0  0  0  0  0  0
    0.4897   -2.4410   -1.5871 H   0  0  0  0  0  0  0  0  0  0  0  0
   -0.4008    2.3197   -6.0404 H   0  0  0  0  0  0  0  0  0  0  0  0
   -0.2155    3.6106   -4.9977 H   0  0  0  0  0  0  0  0  0  0  0  0
  1  3  1  0  0  0  0
  1  5  2  0  0  0  0
  1 10  1  0  0  0  0
  2  4  2  0  0  0  0
  2  5  1  0  0  0  0
  2 11  1  0  0  0  0
  3  6  2  0  0  0  0
  3 12  1  0  0  0  0
  4  6  1  0  0  0  0
  4 13  1  0  0  0  0
  5  8  1  0  0  0  0
  6  9  1  0  0  0  0
  7  8  2  0  0  0  0
  7 14  1  0  0  0  0
  7 15  1  0  0  0  0
  9 16  1  0  0  0  0
  9 17  1  0  0  0  0
M  END
$$$$
