
  -OEChem-12102412493D

 16 16  0     0  0  0  0  0  0999 V2000
    1.9877   -0.9584   -2.7667 C   0  0  0  0  0  0  0  0  0  0  0  0
    1.9392   -0.9969   -1.5537 C   0  0  0  0  0  0  0  0  0  0  0  0
    2.9111   -1.6495    0.6213 C   0  0  0  0  0  0  0  0  0  0  0  0
    0.7961   -0.4808    0.5743 C   0  0  0  0  0  0  0  0  0  0  0  0
    2.8587   -1.6926    2.0104 C   0  0  0  0  0  0  0  0  0  0  0  0
    0.7405   -0.5218    1.9633 C   0  0  0  0  0  0  0  0  0  0  0  0
    1.8823   -1.0423   -0.1255 C   0  0  0  0  0  0  0  0  0  0  0  0
    1.7727   -1.1269    2.7059 C   0  0  0  0  0  0  0  0  0  0  0  0
    1.6896   -1.2214    4.1003 N   0  0  0  0  0  0  0  0  0  0  0  0
    2.0300   -0.9251   -3.8344 H   0  0  0  0  0  0  0  0  0  0  0  0
    3.7567   -2.0878    0.0992 H   0  0  0  0  0  0  0  0  0  0  0  0
   -0.0065   -0.0081    0.0156 H   0  0  0  0  0  0  0  0  0  0  0  0
    3.6618   -2.1711    2.5670 H   0  0  0  0  0  0  0  0  0  0  0  0
   -0.1102   -0.0860    2.4832 H   0  0  0  0  0  0  0  0  0  0  0  0
    1.1144   -0.5116    4.5388 H   0  0  0  0  0  0  0  0  0  0  0  0
    2.5815   -1.3182    4.5716 H   0  0  0  0  0  0  0  0  0  0  0  0
  1  2  3  0  0  0  0
  1 10  1  0  0  0  0
  2  7  1  0  0  0  0
  3  5  2  0  0  0  0
  3  7  1  0  0  0  0
  3 11  1  0  0  0  0
  4  6  1  0  0  0  0
  4  7  2  0  0  0  0
  4 12  1  0  0  0  0
  5  8  1  0  0  0  0
  5 13  1  0  0  0  0
  6  8  2  0  0  0  0
  6 14  1  0  0  0  0
  8  9  1  0  0  0  0
  9 15  1  0  0  0  0
  9 16  1  0  0  0  0
M  END
$$$$
