
  -OEChem-12122420533D

 14 14  0     0  0  0  0  0  0999 V2000
    1.8419   -1.0870   -0.1117 C   0  0  0  0  0  0  0  0  0  0  0  0
    0.7295   -0.5382    1.9410 C   0  0  0  0  0  0  0  0  0  0  0  0
    2.9065   -1.6312    0.6132 C   0  0  0  0  0  0  0  0  0  0  0  0
    1.7962   -1.0832    2.6621 C   0  0  0  0  0  0  0  0  0  0  0  0
    0.7332   -0.5253    0.5384 C   0  0  0  0  0  0  0  0  0  0  0  0
    2.9395   -1.6538    2.0356 C   0  0  0  0  0  0  0  0  0  0  0  0
   -0.3898   -0.0113   -0.2074 N   0  0  0  0  0  0  0  0  0  0  0  0
    4.2802   -2.3238    2.9414 S   0  5  0  0  0  0  0  0  0  0  0  0
    1.8733   -1.1004   -1.2033 H   0  0  0  0  0  0  0  0  0  0  0  0
   -0.1222   -0.1162    2.4789 H   0  0  0  0  0  0  0  0  0  0  0  0
    3.7543   -2.0539    0.0782 H   0  0  0  0  0  0  0  0  0  0  0  0
    1.7648   -1.0722    3.7495 H   0  0  0  0  0  0  0  0  0  0  0  0
   -0.0687    0.3731   -1.0934 H   0  0  0  0  0  0  0  0  0  0  0  0
   -0.8256    0.7512    0.3069 H   0  0  0  0  0  0  0  0  0  0  0  0
  1  3  1  0  0  0  0
  1  5  2  0  0  0  0
  1  9  1  0  0  0  0
  2  4  2  0  0  0  0
  2  5  1  0  0  0  0
  2 10  1  0  0  0  0
  3  6  2  0  0  0  0
  3 11  1  0  0  0  0
  4  6  1  0  0  0  0
  4 12  1  0  0  0  0
  5  7  1  0  0  0  0
  6  8  1  0  0  0  0
  7 13  1  0  0  0  0
  7 14  1  0  0  0  0
M  CHG  1   8  -1
M  END
$$$$
