
  -OEChem-12102412493D

 18 18  0     0  0  0  0  0  0999 V2000
    2.8506   -1.7023    2.0935 C   0  0  0  0  0  0  0  0  0  0  0  0
    0.7530   -0.5255    1.9662 C   0  0  0  0  0  0  0  0  0  0  0  0
    2.9489   -1.6807    0.6990 C   0  0  0  0  0  0  0  0  0  0  0  0
    0.8515   -0.5035    0.5779 C   0  0  0  0  0  0  0  0  0  0  0  0
    1.7548   -1.1250    2.7516 C   0  0  0  0  0  0  0  0  0  0  0  0
    1.9514   -1.0804   -0.0802 C   0  0  0  0  0  0  0  0  0  0  0  0
    3.5129   -1.8350   -2.2981 C   0  0  0  0  0  0  0  0  0  0  0  0
    1.6229   -1.2038    4.1525 N   0  0  0  0  0  0  0  0  0  0  0  0
    1.9644   -0.9868   -1.8618 S   0  0  0  0  0  0  0  0  0  0  0  0
    3.6372   -2.1804    2.6742 H   0  0  0  0  0  0  0  0  0  0  0  0
   -0.1135   -0.0765    2.4477 H   0  0  0  0  0  0  0  0  0  0  0  0
    3.8169   -2.1392    0.2373 H   0  0  0  0  0  0  0  0  0  0  0  0
    0.0620   -0.0306   -0.0018 H   0  0  0  0  0  0  0  0  0  0  0  0
    3.5707   -1.8084   -3.3887 H   0  0  0  0  0  0  0  0  0  0  0  0
    3.5060   -2.8784   -1.9718 H   0  0  0  0  0  0  0  0  0  0  0  0
    4.3846   -1.3189   -1.8871 H   0  0  0  0  0  0  0  0  0  0  0  0
    1.0635   -0.4566    4.5492 H   0  0  0  0  0  0  0  0  0  0  0  0
    2.5094   -1.2768    4.6398 H   0  0  0  0  0  0  0  0  0  0  0  0
  1  3  1  0  0  0  0
  1  5  2  0  0  0  0
  1 10  1  0  0  0  0
  2  4  2  0  0  0  0
  2  5  1  0  0  0  0
  2 11  1  0  0  0  0
  3  6  2  0  0  0  0
  3 12  1  0  0  0  0
  4  6  1  0  0  0  0
  4 13  1  0  0  0  0
  5  8  1  0  0  0  0
  6  9  1  0  0  0  0
  7  9  1  0  0  0  0
  7 14  1  0  0  0  0
  7 15  1  0  0  0  0
  7 16  1  0  0  0  0
  8 17  1  0  0  0  0
  8 18  1  0  0  0  0
M  END
$$$$
