23   
torsion grid (-165,)
C        1.3825648617    1.0756059742   -1.8708481290
C        1.4439950891   -0.3934682225   -1.4311188544
C        2.6284339149   -0.6957365234   -0.5051456061
C        2.7125338802   -2.1660371280   -0.0802082935
C        3.8877223326   -2.4638318791    0.8578573031
C        3.9730228333   -3.9344513410    1.2834141214
C        5.1513475123   -4.2212192410    2.2210289261
H        0.4076793741    1.3269524963   -2.3024207874
H        2.1587331427    1.3102144662   -2.6075356195
H        1.5314716837    1.7425887144   -1.0129401258
H        1.4889279447   -1.0443805476   -2.3139283163
H        0.5146605344   -0.6554688815   -0.9080331948
H        3.5647610230   -0.4077304533   -1.0038816430
H        2.5540729798   -0.0619693510    0.3893001698
H        1.7734014579   -2.4554103697    0.4117580240
H        2.7936867247   -2.7983911252   -0.9751920867
H        3.8068006205   -1.8322758704    1.7536441478
H        4.8272422609   -2.1743189823    0.3666385546
H        3.0346203273   -4.2233554879    1.7751226547
H        4.0547787637   -4.5654654748    0.3884407852
H        5.1879319159   -5.2776498888    2.5087310306
H        6.1059784765   -3.9724703698    1.7427975413
H        5.0782515758   -3.6276075193    3.1398267934
23   
torsion grid (-150,)
C        1.4383307706    1.1268993868   -1.9190293160
C        1.4891896834   -0.3481819672   -1.4815226188
C        2.6544625169   -0.6581316174   -0.5333327318
C        2.7315780024   -2.1322017040   -0.1210105499
C        3.8831006771   -2.4364618993    0.8439882314
C        3.9618268798   -3.9111770929    1.2564666894
C        5.1163145797   -4.2043782239    2.2213489713
H        0.4137473374    1.4565002896   -2.1205978140
H        2.0479665360    1.3140479041   -2.8089040011
H        1.8183255088    1.7775131644   -1.1218918031
H        1.5429753153   -1.0004549453   -2.3622000507
H        0.5532454385   -0.6099549146   -0.9709331144
H        3.6014530320   -0.3634832174   -1.0076380714
H        2.5578586206   -0.0328761547    0.3648114241
H        1.7808365077   -2.4287328364    0.3437610278
H        2.8373256957   -2.7554974194   -1.0197694256
H        3.7772249551   -1.8144914774    1.7438691418
H        4.8340976486   -2.1393400702    0.3801863668
H        3.0118726695   -4.2077845625    1.7206389091
H        4.0687033514   -4.5326380963    0.3574655149
H        5.1485733874   -5.2636141275    2.4990852231
H        6.0822723096   -3.9481367992    1.7706095842
H        5.0176704268   -3.6204655160    3.1439668427
23   
torsion grid (-135,)
C        1.4398102172    1.1332821195   -1.9270780011
C        1.5059447594   -0.3514044624   -1.5051036820
C        2.6538723157   -0.6564953328   -0.5338757115
C        2.7388259607   -2.1328999428   -0.1323671872
C        3.8774275763   -2.4338598531    0.8488872693
C        3.9632103705   -3.9108955914    1.2515541164
C        5.1048885047   -4.2008785088    2.2325090611
H        0.4176659081    1.5236841932   -1.8940556525
H        1.8348045333    1.2954321413   -2.9347543410
H        2.0296991188    1.7577826386   -1.2458927187
H        1.5973369889   -0.9922578308   -2.3905480757
H        0.5635258803   -0.6421439369   -1.0241638391
H        3.6065530529   -0.3469860788   -0.9865438879
H        2.5317436289   -0.0398661531    0.3672356515
H        1.7836332728   -2.4426741529    0.3142849974
H        2.8653851481   -2.7476513298   -1.0343742148
H        3.7512767775   -1.8197859134    1.7515623815
H        4.8329832386   -2.1245502024    0.4027724994
H        3.0087831998   -4.2196598393    1.6982913862
H        4.0900900371   -4.5244916883    0.3497544577
H        5.1426045133   -5.2618775392    2.5027231686
H        6.0754571070   -3.9323000753    1.7991898846
H        4.9861583828   -3.6250080091    3.1578111917
23   
torsion grid (-120,)
C        1.4286085423    1.1282201747   -1.9254303719
C        1.5195541362   -0.3649778157   -1.5291452901
C        2.6487968209   -0.6623566395   -0.5336562247
C        2.7418580460   -2.1398307411   -0.1383319727
C        3.8707779413   -2.4357336487    0.8555621740
C        3.9646173026   -3.9140360724    1.2517302435
C        5.0962347300   -4.1990431459    2.2457038656
H        0.4587933832    1.5632704663   -1.6640841081
H        1.5713459320    1.2766966619   -3.0004562214
H        2.1947631861    1.7218338066   -1.4145357763
H        1.6659941840   -0.9829476851   -2.4233370581
H        0.5694990633   -0.6961800855   -1.0924846485
H        3.6058132156   -0.3398440636   -0.9670433288
H        2.5033237821   -0.0521246041    0.3686775479
H        1.7840381301   -2.4603681930    0.2947520450
H        2.8851128586   -2.7488639525   -1.0418222343
H        3.7278920593   -1.8274610738    1.7596559475
H        4.8290733538   -2.1157565965    0.4230412826
H        3.0073682472   -4.2335746213    1.6846411751
H        4.1084330891   -4.5217403928    0.3484838670
H        5.1400278544   -5.2610935342    2.5108224960
H        6.0698046169   -3.9195065002    1.8262679056
H        4.9605248750   -3.6292090596    3.1724060029
23   
torsion grid (-105,)
C        1.3883868210    1.1811945746   -1.8774214715
C        1.5022715374   -0.3184801354   -1.5231756312
C        2.6161632888   -0.6209199295   -0.5121586053
C        2.7177686831   -2.1038833063   -0.1397659720
C        3.8403680233   -2.4067726355    0.8591705344
C        3.9428815317   -3.8904514798    1.2324272043
C        5.0681363516   -4.1822574627    2.2316486576
H        0.5236309087    1.6493051091   -1.3959337555
H        1.2619146638    1.3316981552   -2.9548442849
H        2.2836373232    1.7355049532   -1.5760267884
H        1.6976515874   -0.9007354411   -2.4324096716
H        0.5460301989   -0.6875527393   -1.1330392101
H        3.5756339573   -0.2825136763   -0.9270006180
H        2.4530450680   -0.0273065729    0.3985020586
H        1.7589605461   -2.4392941191    0.2794767044
H        2.8740475977   -2.6968188052   -1.0518295194
H        3.6846810481   -1.8142420532    1.7715563752
H        4.7997679027   -2.0722211987    0.4403014843
H        2.9845754130   -4.2246118594    1.6517462719
H        4.0994923731   -4.4823931729    0.3208788410
H        5.1184031686   -5.2480502778    2.4800784406
H        6.0429744208   -3.8880965877    1.8253630086
H        4.9196715242   -3.6285497322    3.1661375314
23   
torsion grid (-90,)
C        1.3883489042    1.2609472544   -1.8484123583
C        1.5082904091   -0.2407804610   -1.5305311530
C        2.6020599808   -0.5567075454   -0.5023325519
C        2.7054161540   -2.0464737758   -0.1577280322
C        3.8124504972   -2.3635458377    0.8540730915
C        3.9161590059   -3.8537178148    1.2001311957
C        5.0261572870   -4.1597014204    2.2121043661
H        0.6794244245    1.7597146544   -1.1786125725
H        1.0147228426    1.4220119851   -2.8658954121
H        2.3556357346    1.7687996701   -1.7697658028
H        1.7356766013   -0.7931153775   -2.4516622514
H        0.5437399404   -0.6271233107   -1.1784804289
H        3.5674674498   -0.2047224294   -0.8910417266
H        2.4178498815    0.0170835469    0.4171040022
H        1.7415027216   -2.3951375264    0.2382482454
H        2.8805200614   -2.6201540818   -1.0786439532
H        3.6383922634   -1.7896209562    1.7749952890
H        4.7770877646   -2.0163305172    0.4581363340
H        2.9527212734   -4.2004481386    1.5968782067
H        4.0907789138   -4.4270739953    0.2800134885
H        5.0776004972   -5.2298874210    2.4406141851
H        6.0061143518   -3.8531637743    1.8278810335
H        4.8595030974   -3.6249976955    3.1545584355
23   
torsion grid (-75,)
C        1.4199176604    1.2143237124   -1.8863993501
C        1.5442562944   -0.2818645015   -1.5676464168
C        2.6198199905   -0.5874272222   -0.5180234733
C        2.7340962129   -2.0770516865   -0.1753954696
C        3.8207424198   -2.3831762955    0.8615274246
C        3.9352897959   -3.8729784494    1.2057226475
C        5.0245459796   -4.1679148132    2.2431934074
H        0.9089089775    1.7522910417   -1.0797699447
H        0.8337868678    1.3777998181   -2.7978415677
H        2.4029850256    1.6744823538   -2.0367284568
H        1.7867665105   -0.8315624731   -2.4869071432
H        0.5749245222   -0.6696662099   -1.2288260825
H        3.5897323825   -0.2224592239   -0.8831439569
H        2.4075291005   -0.0191030909    0.3986594711
H        1.7655949604   -2.4391560550    0.1965881867
H        2.9383724351   -2.6455065975   -1.0934774614
H        3.6175512791   -1.8143723654    1.7796698051
H        4.7899505709   -2.0224068693    0.4896027860
H        2.9671561722   -4.2332824054    1.5782011989
H        4.1393113745   -4.4411343058    0.2884341350
H        5.0842950629   -5.2380699503    2.4698142342
H        6.0094001195   -3.8476126479    1.8835036800
H        4.8284498328   -3.6383761340    3.1828941634
23   
torsion grid (-60,)
C        1.4154791339    1.2115032870   -1.8823204796
C        1.5401779437   -0.2832002079   -1.5659093400
C        2.6091111811   -0.5867171244   -0.5093367405
C        2.7418445244   -2.0790183143   -0.1851533540
C        3.8108483824   -2.3812856546    0.8710383657
C        3.9445679829   -3.8737932203    1.1960371114
C        5.0159010479   -4.1648866680    2.2530673883
H        1.1457339724    1.7834470081   -0.9867656803
H        0.6476917633    1.3987516111   -2.6410106396
H        2.3623613028    1.6156393370   -2.2591240843
H        1.7751967234   -0.8342672369   -2.4862028139
H        0.5710557727   -0.6668041646   -1.2202467578
H        3.5788679810   -0.2022619009   -0.8551560488
H        2.3748224612   -0.0342309844    0.4113739256
H        1.7718541416   -2.4627258252    0.1604716050
H        2.9758219443   -2.6308079445   -1.1062155879
H        3.5773429208   -1.8299368027    1.7926250906
H        4.7813037269   -1.9978805030    0.5260024172
H        2.9751163756   -4.2566368954    1.5416321847
H        4.1788652591   -4.4245213788    0.2753609548
H        5.0898122239   -5.2370690359    2.4654785031
H        6.0025154453   -3.8220124114    1.9200006573
H        4.7897708629   -3.6528770072    3.1957313291
23   
torsion grid (-45,)
C        1.4189099867    1.2101242550   -1.8895165077
C        1.5429293530   -0.2859913026   -1.5708871907
C        2.6027387601   -0.5873117497   -0.5043623362
C        2.7539324351   -2.0814936404   -0.1977668763
C        3.8019969154   -2.3801677037    0.8802263645
C        3.9546752965   -3.8746671187    1.1872456671
C        5.0048858780   -4.1621428963    2.2662365188
H        1.4044304459    1.8084940911   -0.9710174850
H        0.5128372631    1.4331387752   -2.4623284811
H        2.2773417487    1.5574407189   -2.4767957117
H        1.7722098013   -0.8426820691   -2.4887292960
H        0.5745798171   -0.6665115109   -1.2192159894
H        3.5723085447   -0.1832346132   -0.8285116496
H        2.3439751011   -0.0506906956    0.4188434595
H        1.7826103823   -2.4866975666    0.1185361768
H        3.0199764177   -2.6160985956   -1.1201927279
H        3.5359529799   -1.8466721303    1.8035077341
H        4.7735215013   -1.9745597580    0.5648924591
H        2.9841280953   -4.2796356814    1.5032822758
H        4.2213726651   -4.4076471429    0.2649418904
H        5.0928433726   -5.2358277337    2.4652840844
H        5.9930316845   -3.7971253328    1.9625400196
H        4.7465765212   -3.6679538370    3.2101434849
23   
torsion grid (-30,)
C        1.4946717559    1.2936945836   -1.9353212678
C        1.6025131008   -0.2097403325   -1.6222637259
C        2.6375936114   -0.5268621517   -0.5356207987
C        2.7780376395   -2.0247894324   -0.2435035138
C        3.7976760362   -2.3388173728    0.8571859252
C        3.9395662533   -3.8372627460    1.1498500541
C        4.9612491137   -4.1401112457    2.2517812508
H        1.7290258541    1.8988986007   -1.0520627693
H        0.5000363771    1.5728714843   -2.2963756085
H        2.2184105478    1.5872966749   -2.7046404867
H        1.8397601645   -0.7673514424   -2.5368382067
H        0.6274406324   -0.5858275787   -1.2855941692
H        3.6156862328   -0.1212837183   -0.8314209224
H        2.3572732702   -0.0002143974    0.3868570777
H        1.7981028328   -2.4315475241    0.0430050307
H        3.0664086094   -2.5489148138   -1.1652324816
H        3.5092015680   -1.8159743801    1.7798239362
H        4.7777198274   -1.9316528760    0.5716652668
H        2.9604651764   -4.2438520595    1.4360100265
H        4.2287768735   -4.3596438524    0.2282673631
H        5.0418751954   -5.2163092565    2.4400749898
H        5.9575892222   -3.7738247246    1.9778457984
H        4.6798984494   -3.6566584188    3.1946613970
23   
torsion grid (-15,)
C        1.4981146419    1.3007441720   -1.9440274199
C        1.6248282339   -0.2095863929   -1.6443787334
C        2.6392822670   -0.5255259263   -0.5375220587
C        2.7878764454   -2.0241012204   -0.2539999977
C        3.7918929199   -2.3375265408    0.8611506504
C        3.9411251161   -3.8367799609    1.1459335068
C        4.9472481868   -4.1390622847    2.2622364701
H        1.9494000386    1.9023756275   -1.1471067472
H        0.4568575327    1.6164204403   -2.0595323003
H        2.0243849818    1.5710635241   -2.8660032635
H        1.8982392124   -0.7537954094   -2.5564591028
H        0.6499290705   -0.6107635730   -1.3397357089
H        3.6188551218   -0.1081179061   -0.8106379714
H        2.3351024344   -0.0084178005    0.3828953875
H        1.8069468844   -2.4414904282    0.0131939823
H        3.0959844723   -2.5388908946   -1.1746651961
H        3.4841604137   -1.8234042943    1.7824543588
H        4.7731562527   -1.9206377862    0.5944918397
H        2.9608332952   -4.2531129137    1.4133913531
H        4.2494346525   -4.3504586679    0.2256500947
H        5.0336612070   -5.2158647857    2.4444057869
H        5.9448536913   -3.7627923047    2.0070739861
H        4.6466835074   -3.6645262413    3.2037159145
23   
torsion grid (0,)
C        1.4906741132    1.2914300367   -1.9523726686
C        1.6447528670   -0.2224628603   -1.6706942132
C        2.6364980340   -0.5334302152   -0.5418275870
C        2.7930577403   -2.0316407129   -0.2611990136
C        3.7849208247   -2.3410806655    0.8658858513
C        3.9421139355   -3.8401217698    1.1474973944
C        4.9357496957   -4.1385314780    2.2759545878
H        2.1260611760    1.8858289406   -1.2864901200
H        0.4615783002    1.6336015215   -1.8038500025
H        1.7725686205    1.5481690969   -2.9783504695
H        1.9713178384   -0.7423733708   -2.5795665629
H        0.6713853895   -0.6578321555   -1.4139652631
H        3.6165128607   -0.1055939345   -0.7952749623
H        2.3104895641   -0.0229464528    0.3751641427
H        1.8121484325   -2.4577526785   -0.0082752496
H        3.1172006604   -2.5407917502   -1.1795817769
H        3.4612411196   -1.8325341532    1.7848012128
H        4.7663166183   -1.9157303569    0.6134335103
H        2.9616619160   -4.2649943111    1.4005572895
H        4.2665222504   -4.3481334035    0.2296059298
H        5.0282514755   -5.2152770829    2.4554537430
H        5.9336365376   -3.7535155053    2.0353521631
H        4.6190280060   -3.6697913273    3.2150364806
23   
torsion grid (15,)
C        1.4078579869    1.3352827420   -1.8152098881
C        1.3592286255   -0.1075573521   -1.2649447190
C        2.6530487479   -0.5309456439   -0.5572450391
C        2.6009684800   -1.9522831008    0.0130887338
C        3.8989328745   -2.3787673766    0.7082468081
C        3.8480571925   -3.8010004740    1.2790328856
C        5.1505280829   -4.2172649368    1.9719139649
H        2.4353016973    1.7152384321   -1.8415659716
H        0.8433372757    2.0253116353   -1.1786181502
H        0.9921564978    1.4102278544   -2.8245586241
H        1.1717645398   -0.8117385939   -2.0854110165
H        0.5127628483   -0.2208637003   -0.5768567367
H        3.4889696973   -0.4525223477   -1.2658919406
H        2.8744175694    0.1782195241    0.2529804578
H        1.7668498376   -2.0275697391    0.7245248043
H        2.3737925015   -2.6597168716   -0.7966998877
H        4.1265918609   -1.6718911311    1.5183567826
H        4.7336024126   -2.3042152371   -0.0028018287
H        3.0146241041   -3.8753628159    1.9901598062
H        3.6216106753   -4.5074136137    0.4693779198
H        5.0862001112   -5.2360498956    2.3695263370
H        5.9963973469   -4.1838495580    1.2752822840
H        5.3847833941   -3.5472565551    2.8074478776
23   
torsion grid (30,)
C        1.4126753014    1.3250566388   -1.8183029245
C        1.3706828816   -0.1207040058   -1.2910798144
C        2.6538005648   -0.5332205132   -0.5588299030
C        2.6065365799   -1.9588995406    0.0015704795
C        3.8972258606   -2.3771767649    0.7149838445
C        3.8508668275   -3.8031653490    1.2767054298
C        5.1461284177   -4.2112353355    1.9877481643
H        2.4374217252    1.6261477316   -2.0644297426
H        1.0641932112    2.0312299400   -1.0555895089
H        0.7855636248    1.4627859285   -2.7045090273
H        1.2179002466   -0.8132061326   -2.1293236414
H        0.5052605690   -0.2540340543   -0.6300728396
H        3.5027683882   -0.4410969234   -1.2499665193
H        2.8514404135    0.1726755228    0.2605028709
H        1.7618510239   -2.0470507654    0.6988403351
H        2.3996009072   -2.6631073086   -0.8164030105
H        4.1051853779   -1.6729144689    1.5326380634
H        4.7423778562   -2.2905271032    0.0178085941
H        3.0070464675   -3.8895822184    1.9740854443
H        3.6439704473   -4.5068987813    0.4595184434
H        5.0852744094   -5.2329794809    2.3782517586
H        6.0025701844   -4.1655779285    1.3048639556
H        5.3606842604   -3.5441174893    2.8308494432
23   
torsion grid (45,)
C        1.4052938079    1.2151874042   -1.8701928347
C        1.3760931186   -0.2219514605   -1.3325625246
C        2.6542221722   -0.6072335168   -0.5779704772
C        2.6248419296   -2.0319131745   -0.0132896900
C        3.9095033674   -2.4215818949    0.7266550334
C        3.8809800732   -3.8463375549    1.2926565403
C        5.1700373089   -4.2256733822    2.0303838025
H        2.3671533869    1.4378909856   -2.3467701127
H        1.2831033714    1.9398340924   -1.0563209644
H        0.6079460244    1.3963354257   -2.5983678012
H        1.2381883290   -0.9220226538   -2.1674588358
H        0.5049941577   -0.3552434557   -0.6780946019
H        3.5142881361   -0.5011111134   -1.2534365070
H        2.8229227647    0.1050147858    0.2421875486
H        1.7686763499   -2.1347190977    0.6677851224
H        2.4481866626   -2.7429017386   -0.8324311395
H        4.0871999429   -1.7105120691    1.5455671692
H        4.7661678107   -2.3200771667    0.0457230483
H        3.0255595544   -3.9475538414    1.9737222776
H        3.7044318450   -4.5568336335    0.4742027041
H        5.1221579461   -5.2470766003    2.4235741869
H        6.0385831640   -4.1650698762    1.3641538741
H        5.3545674286   -3.5514268613    2.8749202917
23   
torsion grid (60,)
C        1.4107934235    1.2131298395   -1.8757579569
C        1.3802000327   -0.2217994355   -1.3373843218
C        2.6522859858   -0.6034413639   -0.5710726847
C        2.6322317858   -2.0369320964   -0.0285063512
C        3.9043038771   -2.4172929279    0.7375446808
C        3.8852975405   -3.8510139181    1.2808369178
C        5.1616850236   -4.2209656006    2.0448876027
H        2.2505115141    1.3581782559   -2.5654934168
H        1.5238713458    1.9381082580   -1.0611952087
H        0.4898621554    1.4592734176   -2.4156367616
H        1.2358801352   -0.9227834640   -2.1702263654
H        0.5104018861   -0.3477605446   -0.6790272051
H        3.5230725657   -0.4761608282   -1.2293817000
H        2.7969075838    0.0985218856    0.2620883742
H        1.7611818815   -2.1635344597    0.6293819318
H        2.4875291125   -2.7382061956   -0.8620802165
H        4.0496345382   -1.7163838031    1.5714741502
H        4.7758931856   -2.2911570593    0.0800841613
H        3.0149688377   -3.9767091053    1.9385374072
H        3.7409772838   -4.5513637753    0.4474562411
H        5.1209013544   -5.2490016553    2.4212317296
H        6.0454187231   -4.1360033577    1.4016922995
H        5.3139887999   -3.5570521094    2.9039141339
23   
torsion grid (75,)
C        1.4094768465    1.2181678373   -1.8716114659
C        1.3804878436   -0.2190026451   -1.3337048768
C        2.6483263680   -0.5985062205   -0.5588007045
C        2.6385579537   -2.0403803433   -0.0388607298
C        3.8990160767   -2.4133416235    0.7497245818
C        3.8907101162   -3.8558518711    1.2695295132
C        5.1553316539   -4.2182224469    2.0564425310
H        2.0713403732    1.3048345978   -2.7408727998
H        1.7524713947    1.9246289391   -1.1073904737
H        0.4137113433    1.5392345192   -2.1977524192
H        1.2289463623   -0.9214861804   -2.1633707714
H        0.5147392989   -0.3422695420   -0.6693976808
H        3.5275301554   -0.4501622334   -1.2017331090
H        2.7710129210    0.0924695598    0.2866252754
H        1.7550796427   -2.1902947008    0.5973280450
H        2.5232378811   -2.7307838550   -0.8859324222
H        4.0143305747   -1.7239991411    1.5978734246
H        4.7830374641   -2.2628695848    0.1143708858
H        3.0079198016   -4.0058299278    1.9051645900
H        3.7764049803   -4.5447037768    0.4220277033
H        5.1224857238   -5.2527349713    2.4154188488
H        6.0518416085   -4.1090900708    1.4349423495
H        5.2776809356   -3.5660328357    2.9291321933
23   
torsion grid (90,)
C        1.4428519947    1.2396328655   -1.9264415586
C        1.4101533562   -0.2033284495   -1.3903314892
C        2.6631079951   -0.5804270018   -0.5895597609
C        2.6510539442   -2.0257526772   -0.0799262211
C        3.8939949096   -2.3950409432    0.7377075039
C        3.8832732056   -3.8411485621    1.2473959484
C        5.1301495151   -4.1997228606    2.0638123878
H        1.8988361491    1.2901735716   -2.9211768930
H        1.9966011723    1.9066305481   -1.2569501394
H        0.4307479755    1.6463126142   -2.0316413974
H        1.2726101130   -0.9078928637   -2.2199269181
H        0.5364635367   -0.3320217785   -0.7381315349
H        3.5565600272   -0.4212608152   -1.2099970923
H        2.7598352867    0.1058076988    0.2629222283
H        1.7529122008   -2.1865022980    0.5327378684
H        2.5621852996   -2.7111187647   -0.9342494188
H        3.9828230026   -1.7108245476    1.5931645497
H        4.7925911577   -2.2338249946    0.1258924268
H        2.9857452454   -4.0019901959    1.8592942655
H        3.7957340358   -4.5249150407    0.3926195462
H        5.0959238167   -5.2369223909    2.4148207709
H        6.0413370685   -4.0797229133    1.4661180642
H        5.2253755934   -3.5527495174    2.9437363148
23   
torsion grid (105,)
C        1.3977659409    1.1774040162   -1.8909502768
C        1.3958372155   -0.2776870832   -1.3711518864
C        2.6441369636   -0.6318006055   -0.5521701878
C        2.6579180586   -2.0809500405   -0.0542182445
C        3.8985339817   -2.4292060148    0.7761041676
C        3.9132553088   -3.8790834148    1.2748742071
C        5.1577907971   -4.2167423383    2.1036749745
H        1.6195319766    1.2274285675   -2.9619675308
H        2.1354302151    1.7923702964   -1.3644143891
H        0.4216092704    1.6548266430   -1.7543041390
H        1.2996729107   -0.9777108292   -2.2099234250
H        0.5136388183   -0.4453185038   -0.7406546001
H        3.5423866914   -0.4465729625   -1.1580789152
H        2.7119733644    0.0496991917    0.3069880755
H        1.7560241549   -2.2667296233    0.5457225461
H        2.5949943618   -2.7610898361   -0.9150483334
H        3.9618059684   -1.7498322222    1.6376562771
H        4.8008399576   -2.2437622956    0.1767432902
H        3.0121864364   -4.0640589295    1.8746253216
H        3.8508890063   -4.5579939010    0.4140412581
H        5.1420007720   -5.2571037535    2.4465415240
H        6.0732274705   -4.0723939107    1.5179762860
H        5.2283507098   -3.5746220396    2.9894576461
23   
torsion grid (120,)
C        1.3569659855    1.1555949345   -1.8231808711
C        1.3857104899   -0.3136481810   -1.3379469831
C        2.6270473145   -0.6541141911   -0.5026104958
C        2.6595146231   -2.1082516523   -0.0206336418
C        3.8996580606   -2.4469059271    0.8143525121
C        3.9329723457   -3.9018979579    1.2970756078
C        5.1768219173   -4.2300438484    2.1306997743
H        1.3343376261    1.2261679312   -2.9152521114
H        2.2436583261    1.7028488376   -1.4845463730
H        0.4828790056    1.6953073013   -1.4453152371
H        1.3426705785   -0.9938609092   -2.1972665526
H        0.4901211542   -0.5306746430   -0.7431954184
H        3.5284256370   -0.4466800578   -1.0961087021
H        2.6735201702    0.0187658260    0.3650253696
H        1.7565619629   -2.3147355338    0.5707875271
H        2.6129483229   -2.7794295245   -0.8895852313
H        3.9467709472   -1.7763158765    1.6837656242
H        4.8031054945   -2.2412309272    0.2233550213
H        3.0307680151   -4.1071250633    1.8884728957
H        3.8867047841   -4.5719720709    0.4283394434
H        5.1744756492   -5.2743258013    2.4617986538
H        6.0939282632   -4.0653006482    1.5530489065
H        5.2315993185   -3.5969647944    3.0240731144
23   
torsion grid (135,)
C        1.3608909943    1.1634602850   -1.8144274401
C        1.4054500434   -0.3129041633   -1.3615550309
C        2.6301592307   -0.6474963393   -0.5000225500
C        2.6653997684   -2.1047515267   -0.0274109246
C        3.8966099097   -2.4413007416    0.8215334372
C        3.9330468329   -3.8993275315    1.2947817924
C        5.1677845677   -4.2250728938    2.1427821554
H        1.1034126462    1.2596117743   -2.8740230093
H        2.3418575267    1.6375016968   -1.6920666958
H        0.6445307196    1.7532247946   -1.2341428381
H        1.4146901883   -0.9698299331   -2.2403887306
H        0.4916445663   -0.5669871443   -0.8106844624
H        3.5406925858   -0.4282051233   -1.0744687345
H        2.6546037560    0.0191878237    0.3736129806
H        1.7561693996   -2.3209615898    0.5506078710
H        2.6345651829   -2.7702083556   -0.9015201635
H        3.9279492894   -1.7763626390    1.6959773858
H        4.8064277321   -2.2258364901    0.2439267682
H        3.0244008176   -4.1144844979    1.8726318114
H        3.9028180263   -4.5637134715    0.4209867252
H        5.1679894642   -5.2716237430    2.4666465428
H        6.0914262496   -4.0502752325    1.5786552070
H        5.2063614578   -3.5978734704    3.0411338046
23   
torsion grid (150,)
C        1.3660100022    1.1545371170   -1.8158092494
C        1.4211051821   -0.3221527325   -1.3842824583
C        2.6304721447   -0.6490243410   -0.4990819196
C        2.6730418803   -2.1097809517   -0.0373278083
C        3.8937096210   -2.4406027170    0.8288874957
C        3.9368642645   -3.9016099712    1.2922627444
C        5.1612034874   -4.2216448776    2.1573510106
H        0.8827766209    1.2758083063   -2.7909075035
H        2.3788734794    1.5616531532   -1.9229848469
H        0.8412810128    1.7781621403   -1.0848451160
H        1.4663110197   -0.9614616772   -2.2756066841
H        0.4947897636   -0.5973117586   -0.8645008521
H        3.5499480872   -0.4147253805   -1.0528033935
H        2.6298240389    0.0102637827    0.3806412464
H        1.7568967439   -2.3398852989    0.5240791038
H        2.6632991355   -2.7683956680   -0.9170916432
H        3.9045587953   -1.7817251965    1.7084051793
H        4.8104926373   -2.2121182481    0.2675087027
H        3.0213669710   -4.1296929813    1.8541186920
H        3.9268565992   -4.5598969441    0.4133982780
H        5.1665359883   -5.2705057598    2.4736120845
H        6.0918719937   -4.0337818641    1.6091978005
H        5.1794787780   -3.6007436635    3.0607045308
23   
torsion grid (165,)
C        1.3760085759    1.0780538894   -1.8615282664
C        1.4384730368   -0.3914084680   -1.4232446705
C        2.6369331102   -0.6990523914   -0.5172999330
C        2.6942888467   -2.1590527866   -0.0541176571
C        3.9012174879   -2.4690428982    0.8386007985
C        3.9595427363   -3.9292760467    1.3027277775
C        5.1698977703   -4.2283511143    2.1945804385
H        0.6863690199    1.2196295029   -2.7006858491
H        2.3610780471    1.4233086655   -2.1984001979
H        1.0620911589    1.7320996871   -1.0406342262
H        1.4972816405   -1.0336246296   -2.3120786908
H        0.5072697804   -0.6667337316   -0.9112726887
H        3.5634488528   -0.4504144013   -1.0529972863
H        2.6088364994   -0.0399364814    0.3620011217
H        1.7701687967   -2.4045841434    0.4873340742
H        2.7149372255   -2.8177511599   -0.9335651184
H        3.8813818071   -1.8104243494    1.7181686278
H        4.8259495253   -2.2243985637    0.2974304266
H        3.0359820644   -4.1735066069    1.8442325955
H        3.9803782274   -4.5872417276    0.4238141482
H        5.1864623380   -5.2770739634    2.5109073436
H        6.1090107588   -4.0241704149    1.6670536269
H        5.1575006229   -3.6075465146    3.0981011000
23   
torsion grid (180,)
C        1.3766982912    1.0781605911   -1.8591986548
C        1.4381531500   -0.3899558697   -1.4225526529
C        2.6304130670   -0.6955838356   -0.5081173414
C        2.7013555830   -2.1614359369   -0.0654876042
C        3.8936459101   -2.4658340015    0.8485486178
C        3.9656635801   -3.9319059487    1.2918663039
C        5.1612098232   -4.2253492020    2.2053010729
H        0.5165041801    1.2678948067   -2.5105231834
H        2.2809487796    1.3647130694   -2.4088549196
H        1.2924292847    1.7445113148   -0.9927228492
H        1.4889396245   -1.0345214322   -2.3101321288
H        0.5075816474   -0.6575696470   -0.9046130569
H        3.5617280212   -0.4268575813   -1.0260669059
H        2.5801178321   -0.0498580615    0.3797684609
H        1.7698229420   -2.4294316921    0.4521960139
H        2.7513837372   -2.8064693581   -0.9537444719
H        3.8441374935   -1.8212318815    1.7372948871
H        4.8257018554   -2.1981341848    0.3314013160
H        3.0347294769   -4.1990832736    1.8093792531
H        4.0161195464   -4.5758852051    0.4038424518
H        5.1879044850   -5.2783807714    2.5062468017
H        6.1080409755   -3.9982966032    1.7014537756
H        5.1193212359   -3.6186715279    3.1174916524
