28   
torsion grid (-60,)
C        2.7564024612   -1.5942109654    6.3005297897
C        3.7719011670   -0.7477359959    6.7510475269
C        2.7221404791   -1.9784640078    4.9606657142
C        4.7546565262   -0.2874805608    5.8701857119
C        3.6904726147   -1.5251780447    4.0468485918
C        4.7204628877   -0.6685108126    4.5235914138
C        2.7662616785   -2.3732457872    1.8227456966
C        1.2607793033   -2.7318775235    1.9801636306
C        1.4743052582   -1.8224370793    0.0402390778
C        3.7324108594   -1.9128046683    2.6346889067
C        7.8493809181   -0.4299985264    4.6210635915
C        6.7961336858    0.4787342257    3.9955177687
N        0.5410943630   -2.3512149315    0.7599656305
O        0.7235171134   -3.2127125864    2.9508665576
O        5.6212817629   -0.2380269273    3.5862342176
S        3.0085303234   -2.7998062791    0.0558704609
S        1.2746846436   -0.6235987927   -1.2034008172
H        2.0007468884   -1.9617973918    6.9886055284
H        3.8103968577   -0.4435711347    7.7939809934
H        1.9488914130   -2.6511121406    4.6112794821
H        5.5335717870    0.3666496791    6.2434159171
H        4.6931148780   -1.7428660419    2.1568085483
H        7.4908964952   -0.8976037902    5.5415710250
H        8.1291870052   -1.2225687668    3.9208478370
H        8.7460695702    0.1526370319    4.8590439109
H        7.1736920669    0.9163900660    3.0684344646
H        6.5218997390    1.3057796359    4.6599131255
H       -0.0149545493   -0.3524655794   -0.8993827091
28   
torsion grid (-45,)
C        2.7621701586   -1.5761496352    6.3010653413
C        3.8169336745   -0.8002837156    6.7870597775
C        2.6936729052   -1.8771452094    4.9420392049
C        4.8065251253   -0.3272915413    5.9210326328
C        3.6694033141   -1.4094863984    4.0409217471
C        4.7410589983   -0.6233054588    4.5547163162
C        2.7294326372   -2.1360594309    1.7603945119
C        1.2684882844   -2.5604647986    1.9127518044
C        1.3682803399   -1.8073285729   -0.1540026839
C        3.6851207047   -1.7010611794    2.6087765185
C        7.8817425169   -0.4962672508    4.6278100536
C        6.8519517172    0.4818398671    4.0718052767
N        0.5409297363   -2.3264530002    0.6913067910
O        0.7457690322   -3.0143767082    2.9114131336
O        5.6495691685   -0.1713007489    3.6359712710
S        3.0610928703   -2.4005728030   -0.0049042874
S        0.9221826209   -0.9570527590   -1.6104997617
H        2.0004002331   -1.9534329554    6.9770233612
H        3.8807879425   -0.5615947955    7.8457152512
H        1.8895749896   -2.4944169400    4.5636146665
H        5.6158565137    0.2709898952    6.3217789572
H        4.6355358446   -1.4670058317    2.1377994271
H        7.5188945351   -1.0067532861    5.5234597816
H        8.1273940646   -1.2538099436    3.8778085731
H        8.7996686500    0.0421067927    4.8879561647
H        7.2329667722    0.9617736818    3.1673723557
H        6.6122100566    1.2760215826    4.7874625866
H       -0.4060299953   -1.0014243671   -1.3643895461
28   
torsion grid (-30,)
C        2.7970774928   -1.5969597936    6.3398806019
C        3.8834601456   -0.8822429070    6.8495639490
C        2.6921964167   -1.8100082229    4.9671747791
C        4.8679069523   -0.3820864810    5.9930417390
C        3.6625614541   -1.3160057828    4.0721671544
C        4.7664566094   -0.5903324532    4.6132349277
C        2.6999012077   -1.9255680519    1.7505469421
C        1.2579048225   -2.3785239613    1.8938503144
C        1.3346329963   -1.8472751865   -0.2612470064
C        3.6497466756   -1.5168796159    2.6279848117
C        7.9097841497   -0.5550245068    4.6305673092
C        6.8993289365    0.4856098712    4.1594867420
N        0.5476164042   -2.2918906643    0.6600959903
O        0.7257211571   -2.7578065648    2.9236225738
O        5.6697391923   -0.1043204716    3.7080836149
S        3.0820041977   -2.0464178806   -0.0031926408
S        0.8005659012   -1.3534890383   -1.8538335452
H        2.0375194907   -1.9928861864    7.0076117173
H        3.9753580713   -0.7114676874    7.9192513748
H        1.8595882993   -2.3720957591    4.5665214242
H        5.7011753379    0.1688823124    6.4120358190
H        4.5913855096   -1.2342525969    2.1657867700
H        7.5491246220   -1.1111938228    5.4994902729
H        8.1186983458   -1.2696170903    3.8290717169
H        8.8479445393   -0.0605323610    4.9050878340
H        7.2765316160    1.0113333312    3.2793157012
H        6.6964010524    1.2388499910    4.9286337570
H       -0.5009020655   -1.6218220354   -1.6135083541
28   
torsion grid (-15,)
C        2.7999184036   -1.6170470298    6.3428886255
C        3.9243009684   -0.9780691252    6.8708569762
C        2.6529138614   -1.7305227359    4.9628933895
C        4.9052425812   -0.4530666315    6.0254225646
C        3.6202075170   -1.2105404931    4.0772428178
C        4.7637114579   -0.5605468980    4.6379285483
C        2.6241433052   -1.7064448634    1.7311221638
C        1.2303264794   -2.2621311447    1.8692253880
C        1.3007390258   -1.9129017261   -0.3404880333
C        3.5649861984   -1.2981108484    2.6259037180
C        7.9080528434   -0.6314919202    4.5798712528
C        6.9239756592    0.4720022002    4.2064875450
N        0.5562326978   -2.3329641238    0.6266172897
O        0.6997246267   -2.6112760266    2.9141022657
O        5.6644534148   -0.0451932842    3.7474064392
S        3.0165276127   -1.6388827563   -0.0153640382
S        0.7469593277   -1.7513029128   -1.9968992219
H        2.0417227557   -2.0292128423    7.0022598807
H        4.0481943983   -0.8851582175    7.9469062024
H        1.7884975030   -2.2283582894    4.5456300441
H        5.7676181329    0.0380158365    6.4594491153
H        4.4778059825   -0.9275415715    2.1679740689
H        7.5491692389   -1.2331693054    5.4186567505
H        8.0724976520   -1.2964447703    3.7269961276
H        8.8692092901   -0.1882601928    4.8622041299
H        7.2985011482    1.0437230878    3.3543365193
H        6.7649755813    1.1773579866    5.0293918497
H       -0.4915233236   -2.2152200266   -1.7279529962
28   
torsion grid (0,)
C        2.7833038672   -1.6811262618    6.3562604545
C        3.9407599596   -1.1095620828    6.8899173082
C        2.5998456403   -1.7112431377    4.9764752259
C        4.9168244835   -0.5679933624    6.0492937798
C        3.5616343711   -1.1749207448    4.0939411244
C        4.7385363684   -0.5921594366    4.6621519431
C        2.5338795394   -1.5914881362    1.7416798837
C        1.1956830240   -2.2618575826    1.8734311210
C        1.3277393091   -2.1033779815   -0.3622773534
C        3.4629867431   -1.1654242744    2.6434049279
C        7.8899268580   -0.7057150402    4.5378515646
C        6.9090391529    0.4237413177    4.2418411885
N        0.5941208877   -2.5070672013    0.6198894543
O        0.6536769148   -2.5778758381    2.9242256683
O        5.6373757178   -0.0603308685    3.7802204991
S        2.8804358834   -1.3487741618    0.0036170560
S        0.8677179573   -2.2610272214   -2.0488510836
H        2.0264118145   -2.1029643355    7.0109933935
H        4.0939916872   -1.0816623755    7.9658487478
H        1.7065519386   -2.1509738520    4.5549718643
H        5.8056730105   -0.1309963696    6.4875573432
H        4.3384154705   -0.7092521391    2.1898329403
H        7.5408799529   -1.3485295168    5.3498451481
H        8.0326416828   -1.3255316534    3.6479306192
H        8.8599966401   -0.2858063669    4.8253219134
H        7.2729525225    1.0364993773    3.4139115307
H        6.7706856548    1.0858656583    5.1034309599
H       -0.3100510720   -2.8554851678   -1.7659432140
28   
torsion grid (15,)
C        2.7883205366   -1.7048284835    6.3830229272
C        3.9903213833   -1.2219285387    6.9052882643
C        2.5536393266   -1.6376398339    5.0120595464
C        4.9590700625   -0.6705631209    6.0623881230
C        3.5075339099   -1.0906793095    4.1283083731
C        4.7293479626   -0.5972847500    4.6844407290
C        2.4218679285   -1.4072127076    1.7906716263
C        1.1509450030   -2.2075777280    1.9155630596
C        1.3905169803   -2.1876634686   -0.3100556053
C        3.3468772635   -0.9676771152    2.6874083812
C        7.8821527854   -0.7846456585    4.4452163973
C        6.9151006280    0.3779494046    4.2480838096
N        0.6472510193   -2.6122112740    0.6559171506
O        0.5937286522   -2.5072882775    2.9619351393
O        5.6209226053   -0.0565379289    3.8005445518
S        2.6428273303   -0.9970835063    0.0612530148
S        1.1275305643   -2.5985891855   -1.9951798928
H        2.0353141904   -2.1306794346    7.0396320915
H        4.1840380390   -1.2705923494    7.9739272787
H        1.6231461885   -2.0035446683    4.6004023710
H        5.8835721728   -0.3046885213    6.4918604652
H        4.1706747672   -0.4205955733    2.2378409259
H        7.5453326331   -1.4688045443    5.2280733147
H        7.9847149047   -1.3523738329    3.5159328312
H        8.8688452977   -0.4004016838    4.7260303294
H        7.2656175624    1.0318268168    3.4461420086
H        6.8165909383    0.9901582421    5.1510998024
H        0.0265298952   -3.3367292093   -1.7415305352
28   
torsion grid (30,)
C        2.7740220326   -1.6955667659    6.3925260938
C        4.0141504242   -1.2947202019    6.8942568081
C        2.4936502305   -1.5387616724    5.0369483486
C        4.9752485157   -0.7356232479    6.0474751978
C        3.4391926297   -0.9833680840    4.1515248155
C        4.6987824906   -0.5736775828    4.6855054207
C        2.2898344126   -1.1972454317    1.8444306093
C        1.0535104757   -2.0706337044    1.9617805718
C        1.4496655317   -2.1684160225   -0.2213542637
C        3.2227899819   -0.7609253878    2.7269972858
C        7.8388794693   -0.8450991771    4.3222439065
C        6.8993618400    0.3519503030    4.2205698258
N        0.6464830383   -2.5894834217    0.6971116648
O        0.4619028982   -2.3398964667    2.9938368844
O        5.5796457552   -0.0234712655    3.7959478174
S        2.3711872111   -0.6877148950    0.1210157665
S        1.4607124572   -2.7684949914   -1.8662730478
H        2.0261317008   -2.1246049471    7.0529131445
H        4.2436673031   -1.4132806324    7.9502384688
H        1.5309132195   -1.8354961777    4.6435170502
H        5.9300984203   -0.4346916330    6.4608008220
H        4.0043699586   -0.1513022681    2.2826861597
H        7.5083770239   -1.5615172393    5.0784953399
H        7.8943294974   -1.3641240894    3.3610339990
H        8.8449382112   -0.5033617536    4.5890825181
H        7.2423439348    1.0383611041    3.4428224071
H        6.8485231530    0.9168420804    5.1578343384
H        0.4584219315   -3.6498972136   -1.6610954684
28   
torsion grid (45,)
C        2.7550306954   -1.7127036170    6.3629260495
C        4.0190088296   -1.3743566855    6.8508900704
C        2.4442462679   -1.4744680143    5.0253452608
C        4.9736211267   -0.7960195803    6.0096966654
C        3.3842700202   -0.9009421842    4.1479302925
C        4.6662057245   -0.5540910770    4.6659225616
C        2.1859800270   -1.0261544473    1.8752576930
C        0.9584993734   -1.9316339537    1.9831236083
C        1.5725057070   -2.1515773216   -0.1192005228
C        3.1310637720   -0.6001799242    2.7401737869
C        7.7795276179   -0.9044096321    4.1934667679
C        6.8801950033    0.3274407282    4.1821733745
N        0.6722235025   -2.5534687694    0.7152897490
O        0.3010540919   -2.1457701082    2.9823355527
O        5.5364978507    0.0204855725    3.7800200702
S        2.1451768569   -0.4670399037    0.1483285546
S        1.9393568138   -2.9091049741   -1.6472178844
H        2.0116315253   -2.1540588126    7.0202825068
H        4.2718573120   -1.5559535954    7.8924581087
H        1.4597463553   -1.7160176256    4.6469339350
H        5.9468161364   -0.5427691185    6.4123000376
H        3.8846842897    0.0473548507    2.3016620135
H        7.4461566574   -1.6476494293    4.9220629458
H        7.7883195106   -1.3741932259    3.2057005937
H        8.8044777676   -0.6113392321    4.4460414716
H        7.2250373774    1.0414308410    3.4304703102
H        6.8775622491    0.8440373199    5.1484013787
H        1.0939364840   -3.9474129402   -1.4632730024
28   
torsion grid (60,)
C        2.7250685471   -1.7352247163    6.3253392682
C        4.0115525251   -1.4620102654    6.7950773987
C        2.3899258064   -1.4254237654    5.0079209209
C        4.9628223983   -0.8771274842    5.9545242541
C        3.3271269501   -0.8457759569    4.1337165816
C        4.6301006367   -0.5642243286    4.6311182525
C        2.0680735577   -0.8835795001    1.9102198120
C        0.8359579487   -1.8276149116    2.0109278953
C        1.6652380945   -2.1133637579    0.0456167835
C        3.0392820716   -0.4776194654    2.7455563239
C        7.7235629007   -0.9714801331    4.0643116456
C        6.8535445013    0.2797130536    4.1292305855
N        0.6681393669   -2.5463963413    0.7430384786
O        0.1271931485   -2.0003712075    2.9753203658
O        5.4945610065    0.0215536941    3.7460139352
S        1.8838660212   -0.3117866842    0.1770455638
S        2.4612187106   -2.9449583525   -1.2578586773
H        1.9830398002   -2.1802140034    6.9817815909
H        4.2840403447   -1.6992091412    7.8203731309
H        1.3861162902   -1.6136508737    4.6485153061
H        5.9539824167   -0.6742332800    6.3417223817
H        3.7706129140    0.1940375506    2.3055837768
H        7.3886357121   -1.7393349916    4.7662415978
H        7.6992271074   -1.3958699098    3.0564383317
H        8.7606130142   -0.7138275138    4.3059923319
H        7.1986449381    1.0190087565    3.4024374245
H        6.8852200683    0.7517241703    5.1175618429
H        1.8541983884   -4.1317265417   -1.0291400973
