11   
torsion grid (-165,)
C       -0.7953991017   -0.4081925155    0.6142062579
C       -0.3075543493    0.9077675476    2.5344028095
N        0.1730945765    0.8427276441    3.8847219655
O       -0.6455652519   -0.3925639021    2.0252914701
H       -1.0275368577   -1.4358566321    0.3252231802
H        0.1298291145   -0.0934068811    0.1070391407
H       -1.6150617589    0.2474378699    0.2812598125
H        0.4739821788    1.3505573871    1.8994503771
H       -1.1935280889    1.5574784207    2.4955752153
H        0.9766667880    0.2189612677    3.9331794065
H       -0.5448296577    0.4532589437    4.4929935658
11   
torsion grid (-150,)
C       -0.7655928918   -0.4167357798    0.6196546058
C       -0.3896751637    0.9367426216    2.5550403991
N        0.2204263572    0.8256467270    3.8509696623
O       -0.8001742680   -0.3409779334    2.0364825169
H       -1.0522337911   -1.4346918452    0.3448469001
H        0.2431973557   -0.2114088277    0.2294630017
H       -1.4706216663    0.2863610143    0.1500780711
H        0.3346636627    1.3895682315    1.8636706723
H       -1.2636474855    1.5979211656    2.6237599935
H        1.0098586837    0.1838886116    3.8025891792
H       -0.4421032012    0.4318551644    4.5167881992
11   
torsion grid (-135,)
C       -0.7339628070   -0.4278458654    0.6361846941
C       -0.4660144366    0.9714742502    2.5714536250
N        0.2583574185    0.8055651559    3.8039086340
O       -0.9464002661   -0.2744222111    2.0313561594
H       -1.0880072478   -1.4258763871    0.3662602650
H        0.3327798796   -0.3467015382    0.3766077865
H       -1.2942868531    0.3141279179    0.0476330179
H        0.1938899320    1.4552775084    1.8401269067
H       -1.3256016686    1.6279276878    2.7520360611
H        1.0384170935    0.1661286941    3.6608436845
H       -0.3450734528    0.3825139377    4.5069323669
11   
torsion grid (-120,)
C       -0.7028310938   -0.4409728404    0.6670196350
C       -0.5365313587    1.0080766184    2.5814201577
N        0.2868813281    0.7844739403    3.7439610362
O       -1.0836568997   -0.1967852845    2.0128533832
H       -1.1335881865   -1.4040367533    0.3817396122
H        0.3909037212   -0.4967178225    0.5534964434
H       -1.0867612219    0.3315885339   -0.0154029097
H        0.0557369098    1.5389274516    1.8267329271
H       -1.3796287269    1.6433563007    2.8726498451
H        1.0680723735    0.1746504827    3.5073807549
H       -0.2544992535    0.3056085233    4.4614923161
11   
torsion grid (-105,)
C       -0.6730550545   -0.4582846172    0.7144067429
C       -0.6048939704    1.0449572139    2.5853563614
N        0.3093711577    0.7667880391    3.6685361179
O       -1.2053233758   -0.1158101850    1.9852786350
H       -1.1916027713   -1.3606452232    0.3810845251
H        0.4063345568   -0.6721824796    0.7608332650
H       -0.8408086692    0.3389521575   -0.0244155338
H       -0.0823796180    1.6340608962    1.8223442670
H       -1.4314071028    1.6417610595    2.9819791881
H        1.1006361335    0.2166918874    3.3379449870
H       -0.1627736944    0.2118804015    4.3799946456
11   
torsion grid (-90,)
C       -0.6456852276   -0.4748106207    0.7698690651
C       -0.6673684938    1.0804840806    2.5875819991
N        0.3267813812    0.7458738183    3.5825441841
O       -1.3075923852   -0.0310475952    1.9445957516
H       -1.2305933038   -1.3033826685    0.3634275721
H        0.3734412454   -0.8372697649    0.9771123245
H       -0.5872029765    0.3234221803    0.0150951728
H       -0.2081606344    1.7348710932    1.8355891243
H       -1.4754972610    1.6259273765    3.0814872140
H        1.1221930603    0.2684289751    3.1627100031
H       -0.0762178130    0.1156722753    4.2733307908
11   
torsion grid (-75,)
C       -0.6207199876   -0.4956084851    0.8280986655
C       -0.7257178289    1.1117901161    2.5920708477
N        0.3412581639    0.7338821490    3.4910988897
O       -1.3846093559    0.0481638125    1.8928886327
H       -1.2553457587   -1.2224385220    0.3158320056
H        0.2830543367   -1.0130414616    1.1841360973
H       -0.3201187686    0.2834606937    0.1105558041
H       -0.3273174365    1.8373443763    1.8692828347
H       -1.5187356047    1.5889984316    3.1720418041
H        1.1374448196    0.3476412241    2.9890129939
H        0.0149050123    0.0279768156    4.1483246260
11   
torsion grid (-60,)
C       -0.6013561638   -0.5169048512    0.8804991396
C       -0.7715461777    1.1398889592    2.5989537368
N        0.3519925186    0.7253962519    3.4052030214
O       -1.4373280040    0.1312281041    1.8249459844
H       -1.2461869113   -1.1512657095    0.2680704333
H        0.1580234968   -1.1510920986    1.3602173846
H       -0.0918807245    0.2081937074    0.2253803519
H       -0.4242689546    1.9381673613    1.9269472692
H       -1.5526898459    1.5379745284    3.2495891950
H        1.1428837370    0.4340750819    2.8367825794
H        0.0964546209   -0.0474921849    4.0167541055
11   
torsion grid (-45,)
C       -0.5891362310   -0.5379094927    0.9174220857
C       -0.8007924297    1.1656634545    2.6082229087
N        0.3610828610    0.7228173202    3.3369152107
O       -1.4573859648    0.2234862162    1.7384205158
H       -1.2253924137   -1.1106902283    0.2388085278
H        0.0275116882   -1.2402797866    1.4951059663
H        0.0771402201    0.1024089985    0.3156648713
H       -0.4974934092    2.0378345723    2.0109841015
H       -1.5785220051    1.4706798675    3.3109231161
H        1.1450453072    0.5177897975    2.7240101720
H        0.1620399686   -0.1036315690    3.8968657255
11   
torsion grid (-30,)
C       -0.5848475961   -0.5589105365    0.9382652748
C       -0.8158156996    1.1875215406    2.6174328955
N        0.3717764160    0.7303551903    3.2891616224
O       -1.4426794960    0.3211326011    1.6415187775
H       -1.2150108290   -1.0881151827    0.2195686578
H       -0.1058497094   -1.2995136650    1.5931264253
H        0.2016348925   -0.0243766161    0.3799512902
H       -0.5600070200    2.1293601999    2.1128185038
H       -1.5980986459    1.3840341472    3.3535729328
H        1.1540722495    0.6059097589    2.6533297306
H        0.2189230295   -0.1392282879    3.7945970905
11   
torsion grid (-15,)
C       -0.5888811161   -0.5811525741    0.9547012545
C       -0.8227486229    1.2027576357    2.6235761602
N        0.3889533190    0.7513988486    3.2514860203
O       -1.4022611943    0.4123868179    1.5497348807
H       -1.2052721674   -1.0503379667    0.1839576503
H       -0.2717486680   -1.3587576898    1.6636407465
H        0.3085139728   -0.1651713509    0.4689880989
H       -0.6308837111    2.2020930991    2.2142792405
H       -1.6086462752    1.2786203643    3.3794990160
H        1.1730690954    0.7128365087    2.6069901759
H        0.2840029595   -0.1565045426    3.6964899576
11   
torsion grid (0,)
C       -0.8970281357   -0.5746811653    1.0477619629
C        0.4199351943    1.0717647246    2.3200561905
N       -0.4701441452    0.8834388297    3.4325987938
O        0.1983678244    0.3199972732    1.0930121991
H       -0.8730309645   -1.0234221245    0.0515827712
H       -1.8685634251   -0.0738405550    1.1742278087
H       -0.8237634190   -1.3843757299    1.7892729280
H        1.4347942307    0.8228341103    2.6470176888
H        0.3936861762    2.1283413049    2.0347271924
H       -0.4626034526   -0.0696303828    3.7841834901
H       -1.4275522918    1.1477428646    3.2189021757
11   
torsion grid (15,)
C       -0.9145998882   -0.5450816497    1.0342885965
C        0.4171999749    1.0655041875    2.3205606813
N       -0.4386948796    0.8429866351    3.4537628373
O        0.2660415721    0.2277393419    1.1420203879
H       -0.8293032165   -1.0919199877    0.0920514235
H       -1.8270429602    0.0712297287    0.9908889680
H       -1.0264847915   -1.2752132483    1.8480622456
H        1.4578952620    0.9391774638    2.6300838291
H        0.2708553574    2.1022814411    1.9939359487
H       -0.3324303183   -0.0883027758    3.8471323214
H       -1.4193385206    0.9997680134    3.2405559619
11   
torsion grid (30,)
C       -0.9209925695   -0.5216852393    1.0204010776
C        0.4052505456    1.0523581614    2.3190318286
N       -0.4109920041    0.8169747647    3.4804698317
O        0.3240364249    0.1255907305    1.2097515741
H       -0.8124367677   -1.1326426552    0.1211598792
H       -1.7460374645    0.1912301122    0.8559373720
H       -1.1900222057   -1.1795041787    1.8580599327
H        1.4587122643    1.0456687554    2.6065375922
H        0.1482144674    2.0509696778    1.9397677124
H       -0.2277893308   -0.0898136940    3.9037617245
H       -1.4038457682    0.8890227153    3.2784646762
11   
torsion grid (45,)
C       -0.9224464600   -0.5009976173    0.9988654108
C        0.3835313780    1.0345670541    2.3188009862
N       -0.3815175077    0.8049901321    3.5184066671
O        0.3607856631    0.0222473463    1.2940764037
H       -0.7993387976   -1.1578168354    0.1346611308
H       -1.6413900109    0.2926541780    0.7356530142
H       -1.3379351767   -1.0891358465    1.8287809723
H        1.4402115839    1.1365297428    2.5731949380
H        0.0287623248    1.9795866273    1.8824024252
H       -0.1245636640   -0.0719402810    3.9669020511
H       -1.3820017413    0.7974846497    3.3415992018
11   
torsion grid (60,)
C       -0.9243650694   -0.4811324985    0.9594253833
C        0.3486634702    1.0158892464    2.3252001956
N       -0.3419790747    0.8021853420    3.5748101110
O        0.3638206835   -0.0681281318    1.3847604690
H       -0.7763740676   -1.2032364127    0.1532281770
H       -1.5143865874    0.3656751274    0.5730250054
H       -1.4940055096   -0.9682252991    1.7639320220
H        1.4037801396    1.2107172087    2.5270788776
H       -0.0935288243    1.9015615897    1.8461458009
H       -0.0015281833   -0.0366806418    4.0406941914
H       -1.3459993856    0.7095436197    3.4450429682
11   
torsion grid (75,)
C       -0.9270959701   -0.4616762570    0.9029603077
C        0.3000482612    0.9982439606    2.3413978605
N       -0.2917688649    0.8039241128    3.6458118528
O        0.3320066155   -0.1418370272    1.4733606347
H       -0.7613661052   -1.2770849239    0.1950823540
H       -1.3536099324    0.3978859185    0.3631304092
H       -1.6540222027   -0.7986211800    1.6575157537
H        1.3495643563    1.2715014926    2.4710801964
H       -0.2245746526    1.8259754437    1.8442000019
H        0.1446461140    0.0135805479    4.1166126626
H       -1.2897300276    0.6162770621    3.5821911677
11   
torsion grid (90,)
C       -0.9277384867   -0.4435695804    0.8387868564
C        0.2410227822    0.9799296596    2.3655937299
N       -0.2350645783    0.8080355744    3.7198614383
O        0.2725501465   -0.2059438081    1.5584191585
H       -0.7778090476   -1.3534701191    0.2527442515
H       -1.1576657200    0.3865987637    0.1545110536
H       -1.7903658162   -0.5977504094    1.5059056687
H        1.2784698293    1.3210869428    2.4084680413
H       -0.3642549941    1.7521521539    1.8737616990
H        0.2986399142    0.0741431162    4.1817162248
H       -1.2136864376    0.5269568565    3.7335750793
11   
torsion grid (105,)
C       -0.9259197242   -0.4302733573    0.7761914482
C        0.1785863298    0.9582285928    2.3938944541
N       -0.1764646469    0.8205351401    3.7872775986
O        0.1850598320   -0.2697036067    1.6454758805
H       -0.8153383099   -1.4022634005    0.2891008892
H       -0.9529246071    0.3513973350    0.0029852783
H       -1.8833631014   -0.4187251716    1.3203958952
H        1.1981989731    1.3506872346    2.3393528808
H       -0.5000027799    1.6802894773    1.9244300712
H        0.4420747666    0.1448929106    4.2321742929
H       -1.1258091406    0.4631039957    3.8820645122
11   
torsion grid (120,)
C       -0.9181736790   -0.4171138967    0.7196346047
C        0.1099929940    0.9365070671    2.4234282936
N       -0.1189520113    0.8293646768    3.8431510270
O        0.0755823051   -0.3250949476    1.7295385412
H       -0.8742244392   -1.4327158224    0.3183246409
H       -0.7374122043    0.2929562560   -0.1007797081
H       -1.9283053450   -0.2399904377    1.1202743364
H        1.1038537791    1.3684580295    2.2657347025
H       -0.6372170374    1.6156309715    1.9961052193
H        0.5779981892    0.2134222788    4.2580384363
H       -1.0290449597    0.4067449748    4.0198931075
11   
torsion grid (135,)
C       -0.9025711348   -0.4091591472    0.6773784792
C        0.0368424896    0.9158066926    2.4485720275
N       -0.0625694227    0.8410569254    3.8823486871
O       -0.0508388563   -0.3735469933    1.8124801712
H       -0.9252526694   -1.4438620545    0.3264553292
H       -0.5326190559    0.2298568890   -0.1385107319
H       -1.9276600745   -0.0964756738    0.9290255928
H        0.9989009411    1.3706282277    2.1839737494
H       -0.7679854489    1.5617463344    2.0752194846
H        0.6930101212    0.2675718126    4.2532366858
H       -0.9351592978    0.3845461371    4.1431637263
11   
torsion grid (150,)
C       -0.8804311332   -0.4040002630    0.6477075954
C       -0.0439017789    0.8984623518    2.4705479029
N       -0.0041274173    0.8504703290    3.9058574501
O       -0.1888354736   -0.4086432631    1.8870663934
H       -0.9678071606   -1.4440075940    0.3241848885
H       -0.3389872632    0.1611372929   -0.1264828121
H       -1.8892588573    0.0246547941    0.7506048251
H        0.8805811010    1.3605778605    2.0997545055
H       -0.8926899482    1.5254213229    2.1636427238
H        0.7916936291    0.2952508735    4.2152627424
H       -0.8421381063    0.3888454455    4.2551969864
11   
torsion grid (165,)
C       -0.8553476741   -0.4015323574    0.6288450405
C       -0.1303879232    0.8881496065    2.4911156416
N        0.0557656158    0.8556827448    3.9134053980
O       -0.3384381126   -0.4265578247    1.9502208905
H       -0.9983746804   -1.4390547314    0.3180664879
H       -0.1621695438    0.0866549268   -0.0738132591
H       -1.8225664458    0.1227275906    0.5841784429
H        0.7530795795    1.3420105120    2.0198654332
H       -1.0050413335    1.5142657430    2.2609269811
H        0.8741954224    0.2961522611    4.1462007335
H       -0.7466173126    0.4096706786    4.3543314112
11   
torsion grid (180,)
C       -0.8262598010   -0.4030028918    0.6181931009
C       -0.2196540454    0.8906836731    2.5122957667
N        0.1168652061    0.8537807074    3.9059745654
O       -0.4913428003   -0.4218053654    1.9970905896
H       -1.0146749178   -1.4357993901    0.3163028151
H       -0.0057822874    0.0037615716    0.0066070814
H       -1.7310969378    0.1952350871    0.4282811701
H        0.6156547303    1.3350832334    1.9510034638
H       -1.1065398456    1.5263961674    2.3720345439
H        0.9346579166    0.2641375650    4.0494878028
H       -0.6477296260    0.4396987924    4.4360723017
