29   
torsion grid (-165,)
C       -2.6376165335    0.2733149335    0.8926670209
C       -3.6333120501    0.8286302283    1.6646619470
C       -1.3263112085    0.7862290470    1.0135685828
C       -3.2535978150    1.8790482778    2.5249678606
C        0.0741808922    0.8498018623   -1.1621609721
C       -0.3475342016   -0.5908060885   -0.9992776230
C       -0.1425495084    0.2769958002    0.2314830198
C        0.2120489391   -3.0220474521   -0.5621528676
C       -3.8199459149    3.5082974266    4.1626273921
C        0.5947878824   -1.7367538011   -1.3073266744
N       -1.0453681538    1.7756361815    1.8660643223
N       -2.0050914048    2.3239954525    2.6229157259
N        1.0767561095    0.0562936389    0.9870655942
O       -4.2215304091    2.4406652477    3.2841863057
H       -2.8530571916   -0.5497120860    0.2193627133
H       -4.6641482409    0.4888651524    1.6390396522
H        1.1079444067    1.0456201691   -1.4320131234
H       -0.6509684308    1.5647923852   -1.5395594537
H       -1.3832661283   -0.7943529808   -1.2641183232
H        0.2504831541   -2.8724016773    0.5226336225
H        0.8923121811   -3.8439359627   -0.8099979410
H       -0.8049730753   -3.3439099389   -0.8167412780
H       -4.7345506333    3.8141608014    4.6715684696
H       -3.3980628179    4.3405844652    3.5934343615
H       -3.0758571384    3.1584219069    4.8827903259
H        0.5851881580   -1.9196394032   -2.3896275715
H        1.6128702410   -1.4435096993   -1.0389054765
H        0.8988460962   -0.6326794790    1.7180367291
H        1.3040772511    0.9250784795    1.4710220247
29   
torsion grid (-150,)
C       -2.5016211865    0.0852430931    1.1211733660
C       -3.5070683861    0.6098184361    1.9025551656
C       -1.2729315950    0.7785432560    1.0518649365
C       -3.2145966449    1.8120051659    2.5789034646
C        0.2022726548    0.9111210760   -1.0757940653
C       -0.3147632677   -0.5090078120   -1.0098449215
C       -0.0878620811    0.2774223858    0.2695835091
C        0.0781228338   -2.9898633915   -0.6976341084
C       -3.8818563994    3.5709460816    4.0351081411
C        0.5589962832   -1.6942358463   -1.3641734463
N       -1.0681519368    1.9071444709    1.7354099715
N       -2.0376390366    2.4263717373    2.5007633849
N        1.0900665304   -0.0584345946    1.0515197647
O       -4.1923813810    2.3459257520    3.3451344656
H       -2.6392511248   -0.8439600264    0.5766313149
H       -4.4802235889    0.1418955247    2.0157457318
H        1.2528509074    1.0518819442   -1.3132460401
H       -0.4634708642    1.6935602563   -1.4271829261
H       -1.3582771845   -0.6244737979   -1.3000032798
H        0.1012318756   -2.8998159832    0.3943201876
H        0.7097549600   -3.8405495196   -0.9753528863
H       -0.9511114635   -3.2311660036   -0.9899464243
H       -4.7903701717    3.8244774975    4.5822915803
H       -3.6253568815    4.3613229624    3.3251185440
H       -3.0444685317    3.4269295458    4.7226277151
H        0.5642363336   -1.8187546942   -2.4546998528
H        1.5872489039   -1.4828671327   -1.0590890944
H        0.8456893722   -0.7509512895    1.7593278024
H        1.3830304698    0.7785122833    1.5560528066
29   
torsion grid (-135,)
C       -2.3594799807   -0.0331267950    1.3721442415
C       -3.3682313839    0.4748657429    2.1584209621
C       -1.2295269138    0.7780610062    1.1197877896
C       -3.1777407645    1.7833540089    2.6516692629
C        0.2866268148    0.9607853203   -0.9722256924
C       -0.3167716857   -0.4276358883   -0.9938687493
C       -0.0538941377    0.2727565827    0.3285492707
C       -0.0683534711   -2.9402897000   -0.8171733988
C       -3.9594174005    3.6378445535    3.9199998791
C        0.4883816274   -1.6400566302   -1.4119887878
N       -1.1205924564    2.0076002710    1.6251783314
N       -2.0966839313    2.5129446104    2.3951031480
N        1.0860343111   -0.1812835392    1.1085795464
O       -4.1596468438    2.3010805234    3.4235758906
H       -2.4185987273   -1.0315109076    0.9474799002
H       -4.2718908073   -0.0753778964    2.4023043344
H        1.3451700735    1.0466686491   -1.2002524548
H       -0.3241270002    1.8050869888   -1.2759087672
H       -1.3666287862   -0.4654974277   -1.2839016979
H       -0.0407299867   -2.9120804218    0.2782081875
H        0.5127818721   -3.8101420604   -1.1418890610
H       -1.1094737289   -3.1043521935   -1.1207086373
H       -4.8525803134    3.8578745698    4.5056071666
H       -3.8546545688    4.3460012395    3.0941237748
H       -3.0648437806    3.6888469388    4.5458633016
H        0.4906979789   -1.7058168366   -2.5076412334
H        1.5263084647   -1.5060125184   -1.0955988400
H        0.7893789637   -0.8867921484    1.7825418436
H        1.4435571348    0.6075762117    1.6475399157
29   
torsion grid (-120,)
C       -2.2098401327   -0.1042299873    1.6115651736
C       -3.2216025596    0.3956343304    2.3964786066
C       -1.1932881599    0.7797620199    1.1764859474
C       -3.1518285440    1.7731852496    2.7021762431
C        0.3608618101    1.0057164767   -0.8822527340
C       -0.3141966247   -0.3457293104   -0.9863505170
C       -0.0278293290    0.2695497529    0.3748352689
C       -0.1923621710   -2.8737093853   -0.9350941848
C       -4.0655905847    3.6888014084    3.7757913261
C        0.4312600167   -1.5747588083   -1.4625102569
N       -1.2007851828    2.0720943733    1.4994742217
N       -2.1846021634    2.5721371879    2.2675258728
N        1.0731823959   -0.2932627923    1.1410593006
O       -4.1368871013    2.2821968876    3.4758375536
H       -2.1844197718   -1.1495251358    1.3139260857
H       -4.0444807162   -0.2065399027    2.7694320737
H        1.4241678013    1.0451543926   -1.1003831417
H       -0.1998703807    1.8985294077   -1.1381353901
H       -1.3639493662   -0.3150182835   -1.2780754833
H       -0.1623883779   -2.9045645602    0.1603173952
H        0.3428619479   -3.7545340182   -1.3059492631
H       -1.2406801544   -2.9669931145   -1.2433190341
H       -4.9392478457    3.8893949468    4.3967338874
H       -4.0985579757    4.2822344754    2.8585919725
H       -3.1451191591    3.9233837874    4.3163922770
H        0.4350631392   -1.5856330243   -2.5601127258
H        1.4733778634   -1.5095487186   -1.1382072312
H        0.7326267187   -1.0179218538    1.7723806039
H        1.4785792150    0.4397955869    1.7228903901
29   
torsion grid (-105,)
C       -2.0514910439   -0.1342198304    1.8642037511
C       -3.0694511254    0.3715192116    2.6347636333
C       -1.1505353033    0.7721273580    1.2511800462
C       -3.1271579691    1.7798357107    2.7469261775
C        0.4362694674    1.0293584582   -0.7793408319
C       -0.3095477183   -0.2747928778   -0.9609113545
C        0.0000782018    0.2509820888    0.4354589002
C       -0.3179507507   -2.8067986524   -1.0364053259
C       -4.1816260288    3.7299312944    3.6074580285
C        0.3716405625   -1.5160670018   -1.4979110693
N       -1.2774605476    2.0890173441    1.3949014387
N       -2.2722334650    2.5970173540    2.1469377267
N        1.0616255731   -0.4181542234    1.1713715713
O       -4.1205323981    2.2948443235    3.5060453648
H       -1.9403380322   -1.2042918391    1.7059896130
H       -3.8086076634   -0.2478649016    3.1335721790
H        1.5017229709    1.0201952944   -0.9896756814
H       -0.0735671948    1.9637159648   -0.9862504073
H       -1.3546372814   -0.1714180779   -1.2519023520
H       -0.2850837023   -2.8984575376    0.0555730477
H        0.1686222653   -3.6932723155   -1.4574828882
H       -1.3710651698   -2.8277103864   -1.3409383122
H       -5.0387196409    3.9311056789    4.2508900180
H       -4.3230375627    4.1817149094    2.6223469028
H       -3.2642941533    4.1261404753    4.0502470598
H        0.3750893851   -1.4714583049   -2.5947338062
H        1.4158275981   -1.5211029908   -1.1737787932
H        0.6845836511   -1.1698781750    1.7473007369
H        1.5028005450    0.2493009510    1.8035083844
29   
torsion grid (-90,)
C       -1.8729308887   -0.1444018720    2.1066164764
C       -2.8985850164    0.3715847926    2.8591810843
C       -1.0968771416    0.7418597286    1.3170780345
C       -3.0934286370    1.7697133550    2.7779142711
C        0.5142562075    1.0295911956   -0.6916961368
C       -0.2950508874   -0.2218774851   -0.9425870536
C        0.0376899060    0.2120678678    0.4840076655
C       -0.4385452787   -2.7431467621   -1.1577431679
C       -4.2930840159    3.7176673691    3.4254336254
C        0.3207782663   -1.4671815158   -1.5450752529
N       -1.3500641690    2.0481053257    1.2864378062
N       -2.3548753716    2.5659505347    2.0183024039
N        1.0639424379   -0.5523469123    1.1725212670
O       -4.0956869830    2.2945064809    3.5188743561
H       -1.6683691615   -1.2120441424    2.0985919220
H       -3.5460461136   -0.2355534033    3.4844305660
H        1.5791852116    0.9748027325   -0.8969286120
H        0.0510297597    1.9967178528   -0.8484792156
H       -1.3335665720   -0.0489894323   -1.2227071055
H       -0.4178228790   -2.8979564545   -0.0725907941
H        0.0025428500   -3.6291123093   -1.6271977140
H       -1.4897105900   -2.6904486019   -1.4645470494
H       -5.1333826228    3.9302571697    4.0871056389
H       -4.5262679224    4.0094215301    2.3982495246
H       -3.3987245751    4.2546902566    3.7515334723
H        0.3300344965   -1.3618084475   -2.6377917282
H        1.3625684201   -1.5450167048   -1.2224886770
H        0.6661898058   -1.3511007107    1.6635975283
H        1.5195392775    0.0357786714    1.8691321531
29   
torsion grid (-75,)
C       -1.6958665006   -0.1060165848    2.3458237743
C       -2.7282526409    0.4266786332    3.0785067393
C       -1.0546846731    0.7111402084    1.3807943786
C       -3.0676645438    1.7702180472    2.8030468230
C        0.5957850957    1.0156975738   -0.5980129053
C       -0.2766336578   -0.1738914786   -0.9145219762
C        0.0665294872    0.1687996297    0.5380606093
C       -0.5699109601   -2.6671500406   -1.2665339696
C       -4.4188419799    3.6791060987    3.2319782377
C        0.2704827188   -1.4210249967   -1.5762946287
N       -1.4360192965    1.9719153328    1.1802548268
N       -2.4487429103    2.5031279710    1.8883324486
N        1.0451311723   -0.6883251086    1.1803517404
O       -4.0789850230    2.3104312382    3.5210699282
H       -1.3850647435   -1.1358316965    2.4966967163
H       -3.2744457884   -0.1318851694    3.8324586223
H        1.6590217276    0.9106658830   -0.7914595245
H        0.1821258517    2.0104803021   -0.7127805148
H       -1.3022955273    0.0723672114   -1.1854737101
H       -0.5792314536   -2.8791210637   -0.1909177977
H       -0.1745362123   -3.5526059954   -1.7759571381
H       -1.6105307327   -2.5347013769   -1.5845348228
H       -5.2415193085    3.9147537167    3.9078768948
H       -4.7310845384    3.7888892346    2.1902560779
H       -3.5660575690    4.3373025610    3.4170029222
H        0.2984663029   -1.2576003470   -2.6615798366
H        1.3024617842   -1.5785227029   -1.2511060408
H        0.6205898488   -1.5315744447    1.5604614772
H        1.4967300198   -0.1940362761    1.9480421803
29   
torsion grid (-60,)
C       -1.5204396672   -0.0287330367    2.5589077682
C       -2.5500222266    0.5279441751    3.2803263284
C       -1.0222137509    0.6755808333    1.4351813973
C       -3.0304962531    1.7777469053    2.8346239385
C        0.6732301382    0.9920450776   -0.5031193979
C       -0.2536307901   -0.1292400506   -0.8904492233
C        0.0842136212    0.1161575041    0.5859901155
C       -0.6757141383   -2.5805134175   -1.3809370448
C       -4.5231217152    3.6132760145    3.0722258714
C        0.2359848680   -1.3675990062   -1.6107152515
N       -1.5283517132    1.8593349344    1.0837521974
N       -2.5372523867    2.4094462635    1.7777656382
N        1.0063921355   -0.8251796753    1.1862493516
O       -4.0419643251    2.3389692572    3.5371287315
H       -1.1022427392   -0.9882851624    2.8465371568
H       -2.9889041996    0.0530132535    4.1524592150
H        1.7332881296    0.8419819990   -0.6843177449
H        0.3074005182    2.0099114208   -0.5706769600
H       -1.2619191897    0.1862501478   -1.1529833776
H       -0.7168455589   -2.8483191717   -0.3186833860
H       -0.3194280653   -3.4579051614   -1.9315186272
H       -1.7015885625   -2.3742393099   -1.7071630687
H       -5.3223310187    3.8829643219    3.7634308789
H       -4.9060384673    3.5341025046    2.0514380097
H       -3.7254432631    4.3603000999    3.0938540214
H        0.2893901571   -1.1473350565   -2.6849943354
H        1.2530340027   -1.5985106734   -1.2822912476
H        0.5384007009   -1.6734359963    1.4972654625
H        1.4764033654   -0.4094820884    1.9883119734
29   
torsion grid (-45,)
C       -1.3856886063    0.0916519583    2.7249335356
C       -2.4044090415    0.6788203715    3.4399210422
C       -1.0247722698    0.6528707223    1.4763809018
C       -3.0127277100    1.8111734264    2.8605455571
C        0.7264852468    0.9652857291   -0.4064241691
C       -0.2418529934   -0.0852598257   -0.8704144471
C        0.0638700119    0.0643494623    0.6254839654
C       -0.7695522971   -2.4855315058   -1.4895059624
C       -4.6245424118    3.5572120650    2.9511224284
C        0.2058466806   -1.3103546158   -1.6387342323
N       -1.6487243571    1.7342962175    1.0008120359
N       -2.6444011727    2.3117779625    1.6876329953
N        0.9244334548   -0.9465479557    1.1987166926
O       -4.0154926056    2.4006140895    3.5530275538
H       -0.8717950281   -0.7813915841    3.1139976705
H       -2.7411014816    0.3104892568    4.4041915024
H        1.7836624028    0.7763252097   -0.5682305896
H        0.4068005517    2.0012431700   -0.4293013731
H       -1.2258563872    0.2954594545   -1.1364447271
H       -0.8495445552   -2.8013904983   -0.4429057201
H       -0.4430349293   -3.3520569978   -2.0747173143
H       -1.7756515541   -2.2124232372   -1.8278369733
H       -5.3932443422    3.8719395126    3.6577421669
H       -5.0690678322    3.3032179577    1.9852932026
H       -3.8877687429    4.3511289826    2.8035273001
H        0.2967626540   -1.0411743238   -2.6992704305
H        1.2016729146   -1.6078624571   -1.2990059713
H        0.4019901086   -1.7703205858    1.4890033393
H        1.4280462258   -0.5855004466    2.0067001406
29   
torsion grid (-30,)
C       -1.2387190501    0.2110592349    2.8414203201
C       -2.2370321789    0.8314123087    3.5579368049
C       -1.0186880125    0.6126513387    1.5022177569
C       -2.9693659715    1.8320458795    2.8877269086
C        0.7893268504    0.9061302840   -0.3181481497
C       -0.2098982042   -0.0732166308   -0.8598645215
C        0.0472372313   -0.0134600087    0.6485717078
C       -0.8186526396   -2.4159957311   -1.6071667531
C       -4.6947255395    3.4686557563    2.8811992431
C        0.2118490795   -1.2809486457   -1.6692921577
N       -1.7594728076    1.5725672103    0.9403619852
N       -2.7324492490    2.1834533831    1.6294038379
N        0.8449430842   -1.0829212039    1.2039369517
O       -3.9552900564    2.4503476031    3.5792133748
H       -0.6352113856   -0.5671637736    3.2971270963
H       -2.4692875963    0.5820577097    4.5888250086
H        1.8430880616    0.6816055741   -0.4574647240
H        0.5161651243    1.9560634379   -0.2978727407
H       -1.1645936580    0.3663054138   -1.1387469179
H       -0.9477388478   -2.7734958848   -0.5791765620
H       -0.5096896304   -3.2693491927   -2.2206630714
H       -1.7993463157   -2.0827458586   -1.9654975034
H       -5.4265464537    3.8319329852    3.6035113720
H       -5.1940256909    3.0521255143    2.0024699668
H       -4.0333805469    4.2782406480    2.5616247439
H        0.3517389220   -0.9676513735   -2.7122199684
H        1.1804543108   -1.6396681295   -1.3104622346
H        0.2677588003   -1.8639967846    1.5089833192
H        1.3967788801   -0.7620952218    1.9970076832
29   
torsion grid (-15,)
C       -0.8395760472    1.4384119765    2.3955569863
C       -1.8502323138    1.8184426649    3.2483004918
C       -1.1846565758    0.8097967743    1.1744917325
C       -3.1682845583    1.5440417963    2.8288635217
C       -0.3188645551    0.8533908586   -1.2530188630
C       -0.5537068183   -0.5909265557   -0.9188624888
C       -0.1360897998    0.3746782038    0.1886061559
C        0.3438821327   -2.9170435695   -0.4810033783
C       -5.5128152774    1.6218273855    3.2179395579
C        0.3911911469   -1.6782823017   -1.3847243502
N       -2.4608954332    0.5815370893    0.8544874302
N       -3.4536101422    0.9519005778    1.6758129809
N        1.2386845107    0.2985470766    0.6289642105
O       -4.1732470950    1.9097704069    3.6583345914
H        0.1985068339    1.6188118110    2.6556081617
H       -1.6701771378    2.3055344599    4.2018122978
H        0.5949242302    1.1092235603   -1.7827128895
H       -1.1802835718    1.4824544644   -1.4547586151
H       -1.5996948873   -0.8776286777   -0.8543803671
H        0.6551658062   -2.6682314036    0.5397848909
H        1.0085091089   -3.7057773445   -0.8502022537
H       -0.6696498786   -3.3303463703   -0.4256302220
H       -6.1581449017    1.9899669116    4.0162276221
H       -5.6512908674    0.5470423923    3.0745162986
H       -5.7308812102    2.1351420280    2.2778066747
H        0.1182233907   -1.9594457375   -2.4102966301
H        1.4111518623   -1.2857370538   -1.4203478457
H        1.3349027921   -0.2905010958    1.4536729287
H        1.6154716761    1.2187605865    0.8456495199
29   
torsion grid (0,)
C       -0.8506334061    1.6357527473    2.2894553574
C       -1.8639179001    2.0406559076    3.1251828363
C       -1.1700622917    0.8017386701    1.1890157419
C       -3.1612027807    1.5801640307    2.8123676922
C       -0.1814390961    0.8920667223   -1.1917072589
C       -0.5169213450   -0.5512717353   -0.9312304556
C       -0.1036729701    0.3395919290    0.2318356794
C        0.2299124960   -2.9398660460   -0.5578692310
C       -5.4870138243    1.4920793830    3.2980141666
C        0.3896714664   -1.6689789006   -1.4021214532
N       -2.4235380674    0.4052246355    0.9668194117
N       -3.4228571832    0.7988443883    1.7732182279
N        1.2410094878    0.1680815785    0.7405009815
O       -4.1688338153    1.9671817263    3.6280209130
H        0.1724123489    1.9522956168    2.4680225241
H       -1.7040873903    2.6811559167    3.9871871335
H        0.7718286322    1.1131585274   -1.6650006575
H       -0.9899979080    1.5816610572   -1.4150303502
H       -1.5775345756   -0.7841553020   -0.9327116173
H        0.5026137320   -2.7508903763    0.4863744529
H        0.8689217441   -3.7482824086   -0.9298483929
H       -0.8059780199   -3.2972222741   -0.5691114210
H       -6.1389658844    1.9121062639    4.0646306361
H       -5.5214605514    0.3997592403    3.3177419830
H       -5.7860707155    1.8376402246    2.3050554645
H        0.1535124197   -1.8903780889   -2.4511314733
H        1.4302245679   -1.3340965430   -1.3706079131
H        1.2485465906   -0.4257680939    1.5674161781
H        1.6691941170    1.0584433289    0.9838229338
29   
torsion grid (15,)
C       -0.9212737800    1.8353885332    2.1243291754
C       -1.9463323876    2.2512780950    2.9378939613
C       -1.1790146260    0.8166519740    1.1722032633
C       -3.1931773030    1.6118058804    2.7532629370
C       -0.0209254820    0.9375727027   -1.1375858078
C       -0.4683084276   -0.4919042172   -0.9533566989
C       -0.0824887310    0.3315802284    0.2606629466
C        0.0869807364   -2.9384959162   -0.6301473555
C       -5.4788910018    1.3519951736    3.3534946770
C        0.3926486068   -1.6517954794   -1.4078128123
N       -2.3854308099    0.2649579976    1.0591434039
N       -3.3989904020    0.6654450418    1.8483850461
N        1.2077211773    0.0519883272    0.8624212994
O       -4.2112717321    2.0054008836    3.5516891588
H        0.0653241273    2.2840891142    2.1999243360
H       -1.8361545701    3.0288904384    3.6875457503
H        0.9763018916    1.1063971402   -1.5359802154
H       -0.7622729036    1.6873799798   -1.3985433262
H       -1.5383979309   -0.6574278801   -1.0362314382
H        0.2943083406   -2.8070382374    0.4375485311
H        0.6959134040   -3.7751865136   -0.9899080272
H       -0.9670341253   -3.2213830622   -0.7281203197
H       -6.1489455316    1.8082282588    4.0828589019
H       -5.3916395118    0.2766207088    3.5283326526
H       -5.8444424597    1.5167677224    2.3366870429
H        0.2197855311   -1.8174418903   -2.4791603286
H        1.4481065665   -1.3910670048   -1.2888395616
H        1.1046916179   -0.5751301767    1.6581808280
H        1.6589619041    0.9028729601    1.1916648453
29   
torsion grid (30,)
C       -0.9680268353    2.0059419196    1.9377121173
C       -2.0005924990    2.4284364756    2.7380178178
C       -1.1494054306    0.8375240726    1.1557667863
C       -3.1746691819    1.6408619056    2.7115943910
C        0.1650686657    0.9670137837   -1.0757227270
C       -0.3864600327   -0.4380358081   -0.9660270111
C       -0.0297823845    0.3260412670    0.2895601129
C       -0.0263221000   -2.9274038115   -0.7007271968
C       -5.3944300908    1.2372605160    3.4620939060
C        0.4212068826   -1.6406797470   -1.4066642543
N       -2.2907981181    0.1536215943    1.1793407208
N       -3.3106202737    0.5568638737    1.9604930163
N        1.1932342738   -0.0600478125    0.9731305272
O       -4.1988169696    2.0389448872    3.4994015291
H       -0.0337555369    2.5595995774    1.8872997381
H       -1.9508674627    3.3156730271    3.3618183700
H        1.1948768452    1.0776496199   -1.4051034303
H       -0.5068103296    1.7697907948   -1.3668491727
H       -1.4576279304   -0.5304631009   -1.1238942894
H        0.1112364735   -2.8466938303    0.3829834337
H        0.5480205552   -3.7926003915   -1.0497669182
H       -1.0876699714   -3.1307690850   -0.8810057650
H       -6.0821504028    1.7236357679    4.1545857030
H       -5.1839759224    0.2133741153    3.7813384738
H       -5.8134916678    1.2143934246    2.4529292788
H        0.3130468655   -1.7581591569   -2.4927618710
H        1.4811916889   -1.4589395225   -1.2074035228
H        0.9856040702   -0.7396874668    1.7034355656
H        1.6303426723    0.7442225102    1.4202138368
29   
torsion grid (45,)
C       -1.0858374202    2.1338340130    1.7510932494
C       -2.1351617821    2.5565910885    2.5306866417
C       -1.1635623022    0.8550060450    1.1474900790
C       -3.2165619509    1.6560901494    2.6638045188
C        0.3110649646    0.9941026350   -0.9861603889
C       -0.3289641615   -0.3796452040   -0.9678711196
C       -0.0166518257    0.3212490964    0.3338017408
C       -0.1436388302   -2.8950987970   -0.7829152493
C       -5.3584071353    1.1355344206    3.5565434919
C        0.4339067229   -1.6143345378   -1.3996294889
N       -2.2232810275    0.0657190893    1.3122580186
N       -3.2556672101    0.4669813041    2.0764079402
N        1.1251116245   -0.1679614341    1.0908167714
O       -4.2561812874    2.0537365386    3.4312349369
H       -0.2159448264    2.7636739271    1.5815443418
H       -2.1647011102    3.5234747264    3.0237110053
H        1.3652039078    1.0506818603   -1.2437703323
H       -0.2902616696    1.8444888625   -1.2966427082
H       -1.3902557973   -0.4008397514   -1.2043660827
H       -0.0922937497   -2.8606410154    0.3104540824
H        0.4063015323   -3.7806017374   -1.1200702432
H       -1.1967612505   -3.0268871587   -1.0547034589
H       -6.0754185701    1.6420729912    4.2033564052
H       -5.0295925458    0.1950260967    4.0058299144
H       -5.8001259321    0.9256507741    2.5791321803
H        0.4021729658   -1.6837976776   -2.4948101043
H        1.4846800462   -1.5074273848   -1.1154888439
H        0.8162837196   -0.8799987249    1.7519454046
H        1.5401860312    0.5874701024    1.6351452836
29   
torsion grid (60,)
C       -1.1972025737    2.2367480107    1.5624330275
C       -2.2642669878    2.6622117483    2.3190343526
C       -1.1567885587    0.8830036577    1.1554510950
C       -3.2384105084    1.6882072743    2.6293804035
C        0.4523744678    1.0192331179   -0.8860921264
C       -0.2684052643   -0.3127888123   -0.9582710248
C        0.0078984673    0.3248840888    0.3852079254
C       -0.2627514503   -2.8396601815   -0.8682953305
C       -5.2864312716    1.0903629384    3.6810736431
C        0.4399374593   -1.5794411746   -1.3902822879
N       -2.1201968094    0.0219324480    1.4841939493
N       -3.1641917536    0.4241628295    2.2274131924
N        1.0664912887   -0.2683573685    1.1870002435
O       -4.2943366048    2.0876975815    3.3733656094
H       -0.4009838940    2.9165281403    1.2705245372
H       -2.3808248462    3.6830836063    2.6698339851
H        1.5211252110    1.0190543619   -1.0809525483
H       -0.0770840748    1.9130805691   -1.2053810287
H       -1.3125743290   -0.2571075637   -1.2599187094
H       -0.3043366033   -2.8402540612    0.2257790557
H        0.2604025174   -3.7469208833   -1.1897767569
H       -1.2947689922   -2.8982888412   -1.2318682796
H       -6.0367309958    1.6128756333    4.2752897919
H       -4.8456867377    0.2685848406    4.2511594698
H       -5.7288465397    0.6890812394    2.7657899110
H        0.4814682764   -1.6050687613   -2.4871184288
H        1.4725115051   -1.5544848334   -1.0308120445
H        0.6667145644   -0.9917346623    1.7845143304
H        1.4728243864    0.4354139890    1.8030127041
29   
torsion grid (75,)
C       -1.3351237659    2.2640834692    1.3809687531
C       -2.4302188133    2.6835957888    2.1027195255
C       -1.1508968425    0.8777390112    1.1837580911
C       -3.2827132404    1.6723868336    2.5929052026
C        0.5816163282    1.0189766151   -0.7651160246
C       -0.2093346887   -0.2622510286   -0.9356295904
C        0.0313926549    0.3048869794    0.4509840600
C       -0.3599713848   -2.7862409962   -0.9522994081
C       -5.2314150613    1.0258368579    3.7942763169
C        0.4453548633   -1.5527494814   -1.3816560749
N       -2.0019567390   -0.0202703024    1.6851054703
N       -3.0681378452    0.3750691123    2.3949157240
N        1.0066449234   -0.3908233581    1.2741278636
O       -4.3664127317    2.0652862281    3.2996734388
H       -0.6230577355    2.9747062904    0.9713547461
H       -2.6504290462    3.7280048671    2.3015500835
H        1.6575092757    0.9612087256   -0.9021166601
H        0.1271837632    1.9532721604   -1.0831157189
H       -1.2290734936   -0.1286269142   -1.2930560879
H       -0.4640900967   -2.8261663637    0.1367209601
H        0.1254428602   -3.7109888405   -1.2829199948
H       -1.3709264884   -2.7673327271   -1.3752011237
H       -6.0284865630    1.5498731704    4.3226007851
H       -4.6902063132    0.3614333162    4.4727249573
H       -5.6379655926    0.4350662190    2.9694868674
H        0.5482837679   -1.5379492521   -2.4747488004
H        1.4546902084   -1.6049156015   -0.9643818733
H        0.5222076348   -1.1035093778    1.8198988759
H        1.4185360064    0.2614131506    1.9412279548
29   
torsion grid (90,)
C       -1.4670052575    2.2757198273    1.1752758514
C       -2.5922833770    2.6882747208    1.8540430565
C       -1.1292465094    0.9048560359    1.2055069728
C       -3.3204866717    1.6898179468    2.5325445141
C        0.7276611950    1.0420927214   -0.6427329200
C       -0.1310822117   -0.1730503250   -0.9175243213
C        0.0695875547    0.3169603585    0.5113430816
C       -0.4447648361   -2.6787396671   -1.0445638573
C       -5.1649536368    1.0487097755    3.8907734217
C        0.4592648526   -1.4866646565   -1.3850379142
N       -1.8683902889    0.0203626015    1.8807994998
N       -2.9624535360    0.4093687757    2.5478341688
N        0.9572692394   -0.4791177929    1.3401403606
O       -4.4317068812    2.0767015648    3.1990852596
H       -0.8465877405    2.9867902425    0.6389688930
H       -2.9214433764    3.7223332251    1.8875845359
H        1.8036761548    0.9164863614   -0.7186014218
H        0.3611087136    2.0169548541   -0.9500548765
H       -1.1184634178    0.0463003865   -1.3216686997
H       -0.6032670423   -2.7524371507    0.0361007339
H       -0.0047098836   -3.6208352580   -1.3892455133
H       -1.4300862198   -2.5774503176   -1.5142057268
H       -6.0083661130    1.5646037653    4.3507449640
H       -4.5412592429    0.5734351798    4.6522462834
H       -5.5143902782    0.2846558520    3.1916571568
H        0.6177463839   -1.4369391176   -2.4705197590
H        1.4401918217   -1.6215597012   -0.9216151152
H        0.3919239885   -1.1563043033    1.8523776353
H        1.3922486681    0.1223905078    2.0395499855
29   
torsion grid (105,)
C       -1.5971956998    2.1720927792    0.9835783216
C       -2.7445648194    2.5824664254    1.6228819563
C       -1.1091953658    0.8704955700    1.2441264051
C       -3.3495443639    1.6531585023    2.4947700932
C        0.8504524328    1.0167841863   -0.5048935756
C       -0.0576589002   -0.1290226858   -0.8864389279
C        0.1028524914    0.2742417238    0.5815146945
C       -0.4985133336   -2.6041091859   -1.1539303773
C       -5.0897001183    1.0837145729    4.0124486354
C        0.4806277577   -1.4482784274   -1.3973320766
N       -1.7409116735    0.0514449627    2.0885767829
N       -2.8591821797    0.4393872631    2.7176597567
N        0.9152864203   -0.6087386183    1.3960473984
O       -4.4813031950    2.0408716055    3.1259008980
H       -1.0752614644    2.8385229267    0.3048313152
H       -3.1804872260    3.5673995730    1.4865668011
H        1.9196457374    0.8284183034   -0.5332819909
H        0.5651137835    2.0288608810   -0.7743725511
H       -1.0123837444    0.1684353547   -1.3188465183
H       -0.6979265687   -2.7260772039   -0.0843785075
H       -0.0977155089   -3.5499835360   -1.5341604861
H       -1.4589159107   -2.4239399352   -1.6510641883
H       -5.9719692145    1.5871222506    4.4090120105
H       -4.4042365354    0.8127809845    4.8195944382
H       -5.3732437350    0.1783287195    3.4696376605
H        0.6875443923   -1.3534557292   -2.4716444987
H        1.4316795724   -1.6594255004   -0.9015203250
H        0.2891582928   -1.2388100474    1.8975792065
H        1.3885293513   -0.0552967325    2.1102842089
29   
torsion grid (120,)
C       -1.7418295631    2.0156694668    0.8011611843
C       -2.8968524003    2.4423182174    1.4111115231
C       -1.1427329187    0.8132823640    1.2531042245
C       -3.4032060129    1.6293607840    2.4488017230
C        0.9150232076    0.9973108460   -0.3658432039
C        0.0035072278   -0.0934528912   -0.8703557878
C        0.0866692204    0.2122644730    0.6313281192
C       -0.4697908382   -2.5404774626   -1.2982491262
C       -5.0490460208    1.2019957445    4.1107362113
C        0.5406828835   -1.3937770694   -1.4289799907
N       -1.6895241318    0.0993294624    2.2383482002
N       -2.8196426882    0.5050308019    2.8401081300
N        0.8309466274   -0.7358178584    1.4337383839
O       -4.5402340467    2.0394954273    3.0563765165
H       -1.3006327890    2.5938667599   -0.0042557913
H       -3.4138469252    3.3549211748    1.1308831275
H        1.9786617549    0.7787283939   -0.3448126273
H        0.6738450315    2.0358364156   -0.5711366404
H       -0.9186780758    0.2519704172   -1.3366078645
H       -0.7104987821   -2.7271831790   -0.2466367554
H       -0.0734178081   -3.4686934496   -1.7238048771
H       -1.4067797949   -2.3079724798   -1.8179155356
H       -5.9522775197    1.7037476585    4.4593462884
H       -4.3200458012    1.1125477193    4.9202963535
H       -5.2834050500    0.2032770172    3.7333349622
H        0.8014209151   -1.2431036114   -2.4850281736
H        1.4619847098   -1.6528928818   -0.9010035252
H        0.1619420751   -1.3482594471    1.9002598436
H        1.3015216798   -0.2292895062    2.1838263737
29   
torsion grid (135,)
C       -2.5978269475    1.1790924997    0.2565000683
C       -3.5763436574    1.6744182444    1.0820468021
C       -1.2940259375    0.9945729413    0.7868614825
C       -3.1993101229    1.9581319704    2.4141908082
C       -0.1757102448    0.5515805790   -1.5284125950
C       -0.4654412079   -0.7849023891   -0.8980764873
C       -0.1557853523    0.4299026242   -0.0134819378
C        0.3409661917   -2.9363484146    0.1606822947
C       -3.7638880351    2.7292684865    4.5909711820
C        0.5092832540   -1.9397726487   -0.9930204835
N       -1.0201652424    1.2860118873    2.0583701677
N       -1.9728850289    1.7680080126    2.8766352537
N        1.1602093454    0.4689469011    0.5849237758
O       -4.1573191573    2.4456987707    3.2357715493
H       -2.8228813850    0.9386942144   -0.7778730372
H       -4.5965972353    1.8490413423    0.7546357493
H        0.7991472364    0.6785262072   -1.9900114207
H       -0.9781639286    1.1092634656   -2.0024768937
H       -1.5130474479   -1.0836034086   -0.8880074304
H        0.5282754136   -2.4502263263    1.1238201728
H        1.0393297973   -3.7747655637    0.0655659825
H       -0.6744818222   -3.3490039046    0.1873734905
H       -4.6657133037    3.1063905735    5.0743258534
H       -2.9700237177    3.4803111860    4.6147352076
H       -3.4089099347    1.8232342323    5.0888910434
H        0.3573365162   -2.4503021415   -1.9532719064
H        1.5284964696   -1.5451945930   -0.9930052908
H        1.0786832459    0.1696423232    1.5564057414
H        1.4620883757    1.4419194583    0.6383218734
29   
torsion grid (150,)
C       -2.6475879413    0.9685771849    0.3820099011
C       -3.6233523952    1.5052947530    1.1841286316
C       -1.3159370597    0.9220539565    0.8733219319
C       -3.2144019236    1.9756402165    2.4526921122
C       -0.1583057016    0.6229891171   -1.4262413187
C       -0.4526142327   -0.7608555659   -0.9164287393
C       -0.1685658021    0.3678628881    0.0779380081
C        0.3481289280   -2.9952217288   -0.0357569275
C       -3.7435746947    2.9830714073    4.5398990776
C        0.5324094253   -1.8985405098   -1.0920513841
N       -1.0109813296    1.3951557824    2.0816221826
N       -1.9612159147    1.9208358887    2.8767796397
N        1.1345548659    0.3593684615    0.7027829815
O       -4.1700105573    2.5047842215    3.2511233612
H       -2.8962893293    0.5931926089   -0.6056974950
H       -4.6641816214    1.5784084165    0.8842121079
H        0.8228745212    0.7951994209   -1.8587291059
H       -0.9604836893    1.2180587864   -1.8536019291
H       -1.4952671359   -1.0720132688   -0.9595150728
H        0.5140766576   -2.5981973927    0.9713436546
H        1.0532120893   -3.8187167897   -0.1917836639
H       -0.6650643147   -3.4131889780   -0.0659002373
H       -4.6491346050    3.3619723870    5.0148322429
H       -3.0021377575    3.7789436188    4.4317182161
H       -3.3085809094    2.1719400640    5.1295459716
H        0.4014082253   -2.3229178730   -2.0962186310
H        1.5491666501   -1.5016471133   -1.0383570426
H        1.0531862020   -0.0862393115    1.6165779634
H        1.3952343388    1.3227703303    0.9131107029
29   
torsion grid (165,)
C       -2.6897958195    0.7599530066    0.5317225057
C       -3.6633773486    1.3305059010    1.3141902563
C       -1.3381549988    0.8579268334    0.9524610506
C       -3.2307835884    1.9841202602    2.4894735955
C       -0.1270559246    0.7002113019   -1.3199693635
C       -0.4299868216   -0.7210068709   -0.9336669145
C       -0.1809466332    0.3147330728    0.1595558616
C        0.3558176612   -3.0236941933   -0.2261178403
C       -3.7303562660    3.2159441418    4.4604910469
C        0.5665103615   -1.8375136877   -1.1755002860
N       -1.0120275500    1.5051228074    2.0721491485
N       -1.9575665816    2.0664571279    2.8461914877
N        1.1049114699    0.2544937617    0.8180750744
O       -4.1825251326    2.5474814404    3.2686184413
H       -2.9579722253    0.2476502197   -0.3864646948
H       -4.7195603393    1.2967081039    1.0652442985
H        0.8639800280    0.9137800804   -1.7094333184
H       -0.9255636133    1.3239572324   -1.7119435551
H       -1.4659352664   -1.0344130636   -1.0472908292
H        0.4895705404   -2.7188768431    0.8174226465
H        1.0687706137   -3.8289612001   -0.4330819421
H       -0.6541480926   -3.4393105516   -0.3234804621
H       -4.6372889996    3.5915104001    4.9354288743
H       -3.0559093166    4.0391055035    4.2107885404
H       -3.2085690095    2.5188613461    5.1212732490
H        0.4677200143   -2.1735075821   -2.2160481804
H        1.5794417885   -1.4449389117   -1.0577019939
H        1.0205899230   -0.3333610632    1.6476196891
H        1.3174653658    1.1830526079    1.1822305523
29   
torsion grid (180,)
C       -2.6977844586    0.4996188748    0.6990179332
C       -3.6797424661    1.0760188281    1.4698874529
C       -1.3446815477    0.7928589336    0.9965600123
C       -3.2508790401    1.9302859988    2.5079345722
C       -0.0471195740    0.7664199648   -1.2327002573
C       -0.3834127764   -0.6769249593   -0.9654877584
C       -0.1720936043    0.2698113464    0.2079057091
C        0.3324704368   -3.0424695701   -0.4064313659
C       -3.7572631068    3.3762377611    4.3264562115
C        0.6084343043   -1.7885764799   -1.2459546859
N       -1.0232066249    1.6138525103    1.9990569802
N       -1.9725988816    2.1823035393    2.7581882221
N        1.0868251718    0.1469406949    0.9134650506
O       -4.2073061416    2.5062871060    3.2715276936
H       -2.9620098315   -0.1713648374   -0.1112288534
H       -4.7388181035    0.8963575081    1.3125560935
H        0.9622185915    0.9973051944   -1.5606860177
H       -0.8245360583    1.4230678165   -1.6126982531
H       -1.4146467126   -0.9605500164   -1.1640801814
H        0.4129661753   -2.8236599740    0.6640197559
H        1.0454592093   -3.8408519443   -0.6384834259
H       -0.6757964201   -3.4326030928   -0.5898562101
H       -4.6687674711    3.7286635869    4.8102517881
H       -3.1867591666    4.2153017870    3.9199315623
H       -3.1291218092    2.8316911749    5.0361675356
H        0.5590413638   -2.0398074884   -2.3134645455
H        1.6193940752   -1.4248378561   -1.0465596015
H        0.9743691459   -0.5211859100    1.6763314370
H        1.2783223868    1.0402782363    1.3668381975
