64
-1 1 C27H31N2O4
C                     7.172395310308     4.233057331555     3.547691117609
C                     6.543573247686     3.681039985789     2.259421453977
N                     5.158828186089     3.260675040150     2.414748083612
C                     4.931605931914     1.869739869921     2.793080038898
C                     4.661207336521     0.944331575861     1.598789983002
C                     4.106236462239     4.157156248288     2.289134886650
C                     4.327745534035     5.544813197448     2.099285698894
C                     3.255022242183     6.428806723015     1.981305301102
C                     1.933397877491     5.988637934112     2.049751806792
C                     1.698680637768     4.616282953640     2.234075167362
C                     2.766780614166     3.717257958900     2.346394485564
C                     0.341636156321     4.080769263923     2.308623615469
N                    -0.031703017275     2.831802316700     2.378219927986
C                    -1.422771677747     2.859064177192     2.437401440319
C                    -1.840301387143     4.159440896810     2.393149996222
O                    -0.713313554721     4.955262576862     2.310751606369
C                    -3.162898019707     4.838247435345     2.437613423418
C                    -2.238931199078     1.605697010335     2.558844546232
C                    -2.881534734924     1.417864913812     3.934179365911
O                    -1.847023451165     1.333010834779     4.895893619378
C                    -2.215359428862     1.187068813718     6.223745611365
C                    -1.160720916354     1.174593841985     7.147821209662
C                    -1.423165740140     1.027418192427     8.513436319299
C                    -2.739294837629     0.892910325612     8.965425032633
C                    -3.784079610090     0.913866833260     8.031565778519
C                    -3.541695931403     1.056943783066     6.661634112165
C                    -5.113339885513     0.731252455784     8.737673701791
C                    -4.767656931142     1.051373833083    10.211758836389
C                    -3.269956210455     0.690899645410    10.373865998836
H                    -3.207494026962    -0.374938241291    10.632930152845
C                    -2.568043519441     1.456180010917    11.493659518909
C                    -3.095957213685     1.106441923955    12.931112022426
O                    -2.788834492471     1.941724629071    13.823841353556
O                    -3.740770609438     0.022564904737    13.036615506404
H                     8.213735102085     4.529823668457     3.375281150042
H                     6.620258497495     5.103383178165     3.913244792659
H                     7.160278252872     3.475619075970     4.338411936816
H                     6.614257818430     4.419067153436     1.454011913676
H                     7.118257862229     2.813511967885     1.916401742672
H                     4.109159261435     1.813610403026     3.512303571710
H                     5.820094685591     1.521334118881     3.330790285008
H                     4.506983972578    -0.086354518680     1.937847871534
H                     3.770456916488     1.261178976092     1.049547129227
H                     5.507635153998     0.953953292868     0.903181284847
H                     5.334272217652     5.944786542695     2.064620813270
H                     3.462619594368     7.487627476480     1.844833795244
H                     1.104093334951     6.682518265413     1.967044298072
H                     2.518367093458     2.671979654606     2.474893428733
H                    -3.296160700795     5.398268962138     3.370598302152
H                    -3.279159940967     5.540279365860     1.604204603599
H                    -3.961171525946     4.094875461451     2.374382996326
H                    -3.041654625274     1.596900582231     1.810857829555
H                    -1.586524517818     0.753674921891     2.350049798314
H                    -3.548665094724     2.261406662283     4.164915970611
H                    -3.487922377325     0.499837731656     3.933917629571
H                    -0.146553014360     1.291398106384     6.774566593293
H                    -0.598500695293     1.029430764486     9.222446356229
H                    -4.373389428586     1.068672128090     5.963324906285
H                    -5.908538745155     1.364482797408     8.325043416642
H                    -5.446823146135    -0.311925999254     8.633365787885
H                    -4.889934697686     2.128060693994    10.387551347021
H                    -5.379390390519     0.521402168667    10.942964433531
H                    -2.651271997833     2.538333357083    11.332432743296
H                    -1.493033853949     1.226149937171    11.488309875983
