64
-1 1 C27H31N2O4
C                     6.776251863956     3.809788589474     5.322882937634
C                     6.370449330102     3.431966279467     3.890893649056
N                     4.990028297204     2.981594430058     3.777660955114
C                     4.766669825141     1.540919904092     3.786679473602
C                     4.811670652961     0.895024351526     2.394205313166
C                     3.955241698418     3.873828811160     3.523421595490
C                     4.158335122819     5.275919661419     3.578405568353
C                     3.110759242203     6.158814821476     3.316618675884
C                     1.831305057055     5.702286259809     3.001422996481
C                     1.612719779308     4.315970166325     2.950525621087
C                     2.658333333241     3.418681116257     3.206192811952
C                     0.301457498166     3.769498756479     2.610155648245
N                    -0.060631907691     2.516570134653     2.532048758569
C                    -1.407150440573     2.539251659463     2.168604754304
C                    -1.808873060466     3.838550402769     2.034516376847
O                    -0.717005290738     4.637104626935     2.322727362906
C                    -3.072034503727     4.513470044731     1.638433404867
C                    -2.169390656546     1.272991486752     1.918475778664
C                    -2.236982673336     0.906567569195     0.434795851595
O                    -3.065365219839     1.872088554178    -0.198154809290
C                    -3.155364012632     1.851737642222    -1.581134080620
C                    -3.875542186424     2.907724392427    -2.157274625715
C                    -4.020349307580     2.986055637365    -3.546073819759
C                    -3.446198437047     2.011469624509    -4.366550384649
C                    -2.730555317242     0.960116768011    -3.776813657731
C                    -2.578982485528     0.862233991502    -2.390144984055
C                    -2.218990494712     0.018776112328    -4.849392277825
C                    -2.319200698428     0.874291209579    -6.135353098953
C                    -3.472982339391     1.875697987263    -5.878835356265
H                    -4.411808318510     1.392742395072    -6.182699811683
C                    -3.360735534342     3.171851274770    -6.679389102980
C                    -3.498796482161     2.985735278774    -8.232280609568
O                    -3.138364946171     3.983388020408    -8.913179832299
O                    -3.974593216877     1.879636256359    -8.621265812290
H                     7.821621086187     4.139017053651     5.356823300280
H                     6.146539624723     4.616199766983     5.709505041312
H                     6.666022615816     2.950676881100     5.993205204408
H                     6.542405496460     4.273117009505     3.211465978188
H                     7.018308606379     2.624949702062     3.531476217689
H                     3.812398666105     1.324216666261     4.275929507003
H                     5.536096357595     1.091380910819     4.424327280745
H                     4.643912904508    -0.185743524033     2.464940944218
H                     4.046582558701     1.318279340291     1.738118585414
H                     5.786683230275     1.058389770378     1.922378153670
H                     5.128134457924     5.684530581064     3.837025589220
H                     3.302796662394     7.228109605931     3.365678488706
H                     1.022410964198     6.393992466539     2.793966368392
H                     2.430760192241     2.363687282419     3.128955376307
H                    -3.395156162349     5.233456762209     2.399208964157
H                    -2.947017530729     5.049540772840     0.691133102520
H                    -3.851909343867     3.765999979640     1.489957984953
H                    -1.674603085266     0.460730572685     2.459856244446
H                    -3.192666952487     1.352573230357     2.300545735931
H                    -1.230284647431     0.915035039578    -0.002970546856
H                    -2.661816488768    -0.100169224233     0.310521160762
H                    -4.304005829432     3.662274457005    -1.502175220926
H                    -4.568170764908     3.817127891087    -3.984126926422
H                    -2.018474232120     0.036906242159    -1.961008735645
H                    -1.207299406652    -0.352989992049    -4.645939483888
H                    -2.877430828069    -0.860211857211    -4.913643260211
H                    -1.387765901456     1.439750201549    -6.267896522376
H                    -2.494020755975     0.300926230706    -7.046370593397
H                    -2.410104114371     3.675248453433    -6.462137494681
H                    -4.152858551447     3.870632538473    -6.375275987192
