64
-1 1 C27H31N2O4
C                     5.586120103749     8.951683094238     4.274630847919
C                     4.059202646702     9.042692033408     4.415578886056
N                     3.334533711055     8.132364321458     3.541134262712
C                     2.938635760594     8.649909619067     2.236830540180
C                     1.517831923557     9.231042607179     2.207854410114
C                     3.057144002071     6.824462421440     3.920145782080
C                     3.573664452760     6.272994022945     5.117821116886
C                     3.282000812947     4.956055718249     5.480309686405
C                     2.485487069647     4.137666344696     4.683284376912
C                     1.965785242610     4.669357358788     3.490969601958
C                     2.244118506311     5.991208359496     3.119597761063
C                     1.122796838873     3.832319727413     2.640468654573
N                     0.778885855559     2.585713826027     2.811488579443
C                    -0.030523364853     2.263021097284     1.720202396637
C                    -0.148434149383     3.363807482134     0.913213045399
O                     0.594696731373     4.376419566087     1.503949732034
C                    -0.797798559109     3.719106052099    -0.382255719635
C                    -0.575205457212     0.865934945787     1.618764353622
C                    -1.549569469645     0.605744612713     0.480774392522
O                    -0.840558432569     0.723223810894    -0.744987959384
C                    -1.575148366687     0.727357452217    -1.919772633255
C                    -0.851439617797     1.017295513938    -3.085058644986
C                    -1.499783112388     1.061780224642    -4.323308615962
C                    -2.873810943734     0.818878677261    -4.404257975734
C                    -3.582790415389     0.517926839670    -3.232857818759
C                    -2.952537939141     0.471907059963    -1.985212200573
C                    -5.047820465354     0.300619556637    -3.556923090308
C                    -5.031613598344     0.067356548806    -5.086891343935
C                    -3.796941420949     0.842562394915    -5.609287984751
H                    -4.109345410102     1.878356367191    -5.801247118465
C                    -3.231133918160     0.303627865578    -6.920956991496
C                    -4.192817161842     0.475093653998    -8.150999122303
O                    -3.869041889987    -0.196153254700    -9.167131007306
O                    -5.158512399588     1.277928688960    -7.994842197750
H                     6.081523118709     9.658064639170     4.951207031513
H                     5.942478250535     7.943685197432     4.504836158699
H                     5.893569745352     9.187931831018     3.250370583998
H                     3.761253995617     8.868565536680     5.454382437298
H                     3.732609940126    10.062009411757     4.181429739236
H                     3.044587939221     7.864344377627     1.482422146924
H                     3.656162470806     9.428592402872     1.955459989793
H                     1.275041286428     9.608037633285     1.207790694774
H                     0.776962418109     8.473974299382     2.478957133995
H                     1.425048034062    10.060193328488     2.917687053019
H                     4.217712293134     6.857909786721     5.763821166076
H                     3.698995672353     4.564259446808     6.405285923148
H                     2.260254373615     3.112928175544     4.957438421258
H                     1.805430519289     6.360983424033     2.202615539853
H                    -0.990839839051     4.795373735866    -0.411296128857
H                    -0.162497308929     3.458033575324    -1.234523933692
H                    -1.743721974104     3.197061652802    -0.521416096611
H                     0.266192573211     0.168279623018     1.531607623459
H                    -1.075554252343     0.625333149646     2.564711338171
H                    -1.972958795337    -0.403917773966     0.578755966416
H                    -2.384564487570     1.318986649135     0.515208599217
H                     0.217436428731     1.196861290920    -2.999232742590
H                    -0.928110749157     1.279084639534    -5.222467550746
H                    -3.525319166758     0.226603048046    -1.095687233248
H                    -5.493541217506    -0.525856062745    -2.990018476159
H                    -5.619645633796     1.206646417849    -3.307190875866
H                    -4.886023189081    -1.001702894668    -5.289466508052
H                    -5.939011753505     0.385319666268    -5.601416770081
H                    -2.963812514707    -0.755811760635    -6.818956459565
H                    -2.300447224302     0.830952072285    -7.173889759669
