64
-1 1 C27H31N2O4
C                     3.766868502321     9.678602075509    -0.303344480598
C                     4.355111145011     8.738641191193     0.759350358059
N                     3.347988914778     7.994581218133     1.501933201729
C                     2.903791087013     8.571048646574     2.765202713559
C                     3.702410108928     8.085311275621     3.983368133928
C                     2.875834533263     6.766096048390     1.055930900842
C                     3.222612048359     6.257553552706    -0.219491001586
C                     2.741077037682     5.018614047950    -0.648242760418
C                     1.902014059910     4.244519257020     0.149448005293
C                     1.543752462698     4.737324022459     1.415632786128
C                     2.025829504301     5.975103385558     1.860895990496
C                     0.670750942649     3.940373575666     2.274392544030
N                     0.148209354904     2.768497339122     2.038932175458
C                    -0.605258394109     2.455432280631     3.172188318319
C                    -0.505256432208     3.484404613608     4.071338272966
O                     0.317078878218     4.442407244577     3.494772682153
C                    -0.991096214826     3.801033066768     5.446302652723
C                    -1.328696706985     1.138674975708     3.212464080492
C                    -2.254045637946     0.918244398817     4.398663022128
O                    -1.456721200451     0.822765674377     5.571060127800
C                    -2.104095538731     0.819243650783     6.795953004507
C                    -1.269704555425     0.881229251988     7.921134649273
C                    -1.821692648275     0.916827659130     9.205353381980
C                    -3.209215593890     0.892423276199     9.373398759415
C                    -4.031195778782     0.823436840417     8.240064049613
C                    -3.497737752024     0.783007341681     6.947749736391
C                    -5.487131976591     0.782377911848     8.659802650522
C                    -5.439574963546     1.297558300627    10.118408129309
C                    -4.034254243140     0.916820499362    10.647898258339
H                    -4.093464489795    -0.099333759253    11.061146765347
C                    -3.526878689040     1.824254474529    11.767177010697
C                    -4.368192061694     1.746018259234    13.090910665167
O                    -4.141028376852     2.675425624851    13.911374794393
O                    -5.151629301649     0.757946736675    13.195129259251
H                     4.563664789209    10.216416500736    -0.830722345874
H                     3.179722029056     9.121120964459    -1.038636860420
H                     3.105013531301    10.417751162344     0.160424204289
H                     5.064571009030     8.041922893096     0.301369882296
H                     4.938285069081     9.323890839331     1.478910378785
H                     1.837149814055     8.370273155941     2.903933938401
H                     2.991042682775     9.660004703368     2.682139666547
H                     3.328947398913     8.552597978231     4.901604732673
H                     3.628767358200     7.000285571432     4.095918983035
H                     4.762504697774     8.340160988239     3.877382643596
H                     3.854205771874     6.828624516621    -0.889772458214
H                     3.026453067962     4.660128270104    -1.634675701619
H                     1.523667070699     3.282897683651    -0.179378559376
H                     1.739080269742     6.301408632489     2.851445454137
H                    -0.339080886573     3.369092761237     6.211994358260
H                    -1.015315491569     4.885680430419     5.584444829244
H                    -1.992015038205     3.410366165329     5.626398845189
H                    -1.917956343606     1.046795190769     2.292013991684
H                    -0.588900023664     0.329759091333     3.184450671942
H                    -2.973642605824     1.743779342206     4.485261676713
H                    -2.828524471346    -0.007931948338     4.255258786800
H                    -0.193964164998     0.912625865075     7.766575977482
H                    -1.166204414656     0.980410819875    10.070722108152
H                    -4.159664458306     0.726359984925     6.088674620621
H                    -6.138847192574     1.373794712909     8.005088555536
H                    -5.852040055445    -0.254767118639     8.624118495505
H                    -5.529433873635     2.391576979921    10.119766728296
H                    -6.221943239077     0.898240584777    10.764439553415
H                    -3.490404684119     2.867218321749    11.427449331986
H                    -2.495341026657     1.552720487097    12.032623406998
