64
-1 1 C27H31N2O4
C                     6.481209660491     1.543992349311     4.545976167800
C                     6.383049150616     2.353653442200     3.245932152477
N                     5.066269440330     2.297074317554     2.603759620886
C                     4.964409595452     1.544101830784     1.352037644810
C                     5.115054811267     2.434519816402     0.112453279413
C                     3.999492433418     3.000619038712     3.107840687008
C                     4.133832265301     3.860708370231     4.233613957187
C                     3.032321775523     4.520112970302     4.774776872926
C                     1.750201368041     4.362075386984     4.246560272355
C                     1.600969441679     3.527040135716     3.125132060377
C                     2.700523134676     2.878895183122     2.552942378796
C                     0.278364839705     3.250929321047     2.570238715847
N                    -0.037870344827     2.611025520328     1.477408182270
C                    -1.428441573430     2.517801540605     1.484098633245
C                    -1.909187628512     3.143221115473     2.599296111657
O                    -0.823956026762     3.621142237393     3.307647846846
C                    -3.262237345905     3.385687726813     3.168907588950
C                    -2.197273432410     1.762554385595     0.443538187205
C                    -2.514667816665     0.282884568721     0.776959803974
O                    -1.561094541827    -0.648991593797     0.285841732684
C                    -0.413167733399    -0.945683120916     1.006223809040
C                     0.461172721412    -1.838233023930     0.369109523652
C                     1.669988310732    -2.196368364752     0.973738477344
C                     2.011821728442    -1.662160652639     2.217965330285
C                     1.124444231031    -0.780451182916     2.849719325701
C                    -0.094490851132    -0.424518589859     2.266343065434
C                     1.718070458074    -0.298956738963     4.157545548087
C                     3.222902820653    -0.618147489344     3.989139774513
C                     3.289643280184    -1.832582586094     3.024012407415
H                     3.224511032531    -2.747748734617     3.628254622526
C                     4.562049496940    -1.913335023150     2.164877568705
C                     5.881247266615    -1.608835348701     2.934825282503
O                     6.739915333982    -0.919514032532     2.300862506701
O                     5.964886539984    -2.065873021179     4.106808899686
H                     7.452728022474     1.732920001414     5.020849975126
H                     5.695677164537     1.821311042713     5.256118643961
H                     6.411711351593     0.475377763951     4.335015672187
H                     6.665339167573     3.403632903917     3.411832917555
H                     7.100725739688     1.940782825930     2.534962318330
H                     4.008956820748     1.015386263729     1.317014940140
H                     5.726670486380     0.759803667133     1.381259334269
H                     5.030856568010     1.831107086569    -0.799159618770
H                     4.344778594840     3.213201033842     0.080615438368
H                     6.095431684424     2.924871654966     0.105384890073
H                     5.101288181463     3.995935928637     4.700343584364
H                     3.181669798074     5.161892360268     5.640815368109
H                     0.891256646829     4.855502115566     4.688342517281
H                     2.511949671464     2.235736376337     1.704198352669
H                    -3.388539939061     2.886137423050     4.137038925736
H                    -3.447190982991     4.455691645772     3.321227618885
H                    -4.025104700374     3.000240317166     2.487528767620
H                    -3.156087397879     2.268513464596     0.275827726028
H                    -1.651449682553     1.785697072470    -0.504054840100
H                    -2.683849649785     0.152673747859     1.852990802650
H                    -3.440075099996     0.006396450701     0.261272347008
H                     0.184563088429    -2.220283422807    -0.610200327161
H                     2.352283963330    -2.867068569890     0.456353684474
H                    -0.744584948604     0.284456230328     2.766455265433
H                     1.524180436095     0.761915512837     4.348092604165
H                     1.287606773924    -0.866366738515     4.996323066504
H                     3.721820085594     0.237239838070     3.527072150937
H                     3.743497671276    -0.823934415164     4.924850614395
H                     4.478935273200    -1.230204985094     1.314989990625
H                     4.650283690115    -2.923942171071     1.741832806171
