
  -OEChem-12102412493D

 64 67  0     1  0  0  0  0  0999 V2000
    5.8064    8.7383    4.3647 C   0  0  0  0  0  0  0  0  0  0  0  0
    4.2845    8.9121    4.4805 C   0  0  0  0  0  0  0  0  0  0  0  0
    3.5261    8.0241    3.6116 N   0  0  0  0  0  0  0  0  0  0  0  0
    3.1685    8.5402    2.2958 C   0  0  0  0  0  0  0  0  0  0  0  0
    1.7823    9.1986    2.2458 C   0  0  0  0  0  0  0  0  0  0  0  0
    3.1695    6.7424    4.0128 C   0  0  0  0  0  0  0  0  0  0  0  0
    3.6395    6.1875    5.2280 C   0  0  0  0  0  0  0  0  0  0  0  0
    3.2680    4.8975    5.6136 C   0  0  0  0  0  0  0  0  0  0  0  0
    2.4349    4.1097    4.8233 C   0  0  0  0  0  0  0  0  0  0  0  0
    1.9612    4.6448    3.6134 C   0  0  0  0  0  0  0  0  0  0  0  0
    2.3198    5.9402    3.2186 C   0  0  0  0  0  0  0  0  0  0  0  0
    1.0803    3.8398    2.7703 C   0  0  0  0  0  0  0  0  0  0  0  0
    0.6519    2.6240    2.9705 N   0  0  0  0  0  0  0  0  0  0  0  0
   -0.1595    2.3232    1.8746 C   0  0  0  0  0  0  0  0  0  0  0  0
   -0.1910    3.4047    1.0342 C   0  0  0  0  0  0  0  0  0  0  0  0
    0.6083    4.3831    1.6090 O   0  0  0  0  0  0  0  0  0  0  0  0
   -0.7936    3.7635   -0.2828 C   0  0  0  0  0  0  0  0  0  0  0  0
   -0.7964    0.9637    1.8055 C   0  0  0  0  0  0  0  0  0  0  0  0
   -1.7613    0.7327    0.6534 C   0  0  0  0  0  0  0  0  0  0  0  0
   -1.0193    0.7625   -0.5581 O   0  0  0  0  0  0  0  0  0  0  0  0
   -1.7250    0.7707   -1.7503 C   0  0  0  0  0  0  0  0  0  0  0  0
   -3.1134    0.6187   -1.8420 C   0  0  0  0  0  0  0  0  0  0  0  0
   -3.7378    0.6757   -3.1017 C   0  0  0  0  0  0  0  0  0  0  0  0
   -2.9853    0.8806   -4.2534 C   0  0  0  0  0  0  0  0  0  0  0  0
   -1.5881    1.0258   -4.1427 C   0  0  0  0  0  0  0  0  0  0  0  0
   -0.9534    0.9705   -2.9071 C   0  0  0  0  0  0  0  0  0  0  0  0
   -0.9837    1.2259   -5.5182 C   0  0  0  0  0  0  0  0  0  0  0  0
   -2.2031    1.6470   -6.3730 C   0  0  0  0  0  0  0  0  0  0  0  0
   -3.4282    0.9770   -5.7024 C   0  0  2  0  0  0  0  0  0  0  0  0
   -3.5257   -0.0349   -6.1189 H   0  0  0  0  0  0  0  0  0  0  0  0
   -4.7510    1.6947   -5.9622 C   0  0  0  0  0  0  0  0  0  0  0  0
   -5.2100    1.6780   -7.4637 C   0  0  0  0  0  0  0  0  0  0  0  0
   -6.1370    2.4873   -7.7359 O   0  0  0  0  0  0  0  0  0  0  0  0
   -4.6235    0.8474   -8.2166 O   0  5  0  0  0  0  0  0  0  0  0  0
    6.3287    9.4309    5.0353 H   0  0  0  0  0  0  0  0  0  0  0  0
    6.1056    7.7177    4.6193 H   0  0  0  0  0  0  0  0  0  0  0  0
    6.1403    8.9379    3.3410 H   0  0  0  0  0  0  0  0  0  0  0  0
    3.9628    8.7739    5.5176 H   0  0  0  0  0  0  0  0  0  0  0  0
    4.0157    9.9424    4.2225 H   0  0  0  0  0  0  0  0  0  0  0  0
    3.2359    7.7369    1.5559 H   0  0  0  0  0  0  0  0  0  0  0  0
    3.9302    9.2728    2.0070 H   0  0  0  0  0  0  0  0  0  0  0  0
    1.5680    9.5721    1.2380 H   0  0  0  0  0  0  0  0  0  0  0  0
    0.9987    8.4882    2.5229 H   0  0  0  0  0  0  0  0  0  0  0  0
    1.7305   10.0431    2.9416 H   0  0  0  0  0  0  0  0  0  0  0  0
    4.3086    6.7481    5.8701 H   0  0  0  0  0  0  0  0  0  0  0  0
    3.6507    4.5021    6.5518 H   0  0  0  0  0  0  0  0  0  0  0  0
    2.1471    3.1059    5.1157 H   0  0  0  0  0  0  0  0  0  0  0  0
    1.9137    6.3152    2.2888 H   0  0  0  0  0  0  0  0  0  0  0  0
   -0.9278    4.8475   -0.3408 H   0  0  0  0  0  0  0  0  0  0  0  0
   -0.1553    3.4490   -1.1146 H   0  0  0  0  0  0  0  0  0  0  0  0
   -1.7632    3.2900   -0.4312 H   0  0  0  0  0  0  0  0  0  0  0  0
   -0.0032    0.2080    1.7613 H   0  0  0  0  0  0  0  0  0  0  0  0
   -1.3329    0.7899    2.7463 H   0  0  0  0  0  0  0  0  0  0  0  0
   -2.2545   -0.2425    0.7718 H   0  0  0  0  0  0  0  0  0  0  0  0
   -2.5461    1.5013    0.6459 H   0  0  0  0  0  0  0  0  0  0  0  0
   -3.7181    0.4602   -0.9553 H   0  0  0  0  0  0  0  0  0  0  0  0
   -4.8184    0.5717   -3.1653 H   0  0  0  0  0  0  0  0  0  0  0  0
    0.1234    1.0895   -2.8046 H   0  0  0  0  0  0  0  0  0  0  0  0
   -0.1659    1.9564   -5.5242 H   0  0  0  0  0  0  0  0  0  0  0  0
   -0.5673    0.2737   -5.8780 H   0  0  0  0  0  0  0  0  0  0  0  0
   -2.3257    2.7366   -6.3191 H   0  0  0  0  0  0  0  0  0  0  0  0
   -2.1343    1.3700   -7.4254 H   0  0  0  0  0  0  0  0  0  0  0  0
   -4.6969    2.7347   -5.6158 H   0  0  0  0  0  0  0  0  0  0  0  0
   -5.5554    1.2207   -5.3820 H   0  0  0  0  0  0  0  0  0  0  0  0
  1  2  1  0  0  0  0
  1 35  1  0  0  0  0
  1 36  1  0  0  0  0
  1 37  1  0  0  0  0
  2  3  1  0  0  0  0
  2 38  1  0  0  0  0
  2 39  1  0  0  0  0
  3  4  1  0  0  0  0
  3  6  1  0  0  0  0
  4  5  1  0  0  0  0
  4 40  1  0  0  0  0
  4 41  1  0  0  0  0
  5 42  1  0  0  0  0
  5 43  1  0  0  0  0
  5 44  1  0  0  0  0
  6  7  1  0  0  0  0
  6 11  2  0  0  0  0
  7  8  2  0  0  0  0
  7 45  1  0  0  0  0
  8  9  1  0  0  0  0
  8 46  1  0  0  0  0
  9 10  2  0  0  0  0
  9 47  1  0  0  0  0
 10 11  1  0  0  0  0
 10 12  1  0  0  0  0
 11 48  1  0  0  0  0
 12 13  2  0  0  0  0
 12 16  1  0  0  0  0
 13 14  1  0  0  0  0
 14 15  2  0  0  0  0
 14 18  1  0  0  0  0
 15 16  1  0  0  0  0
 15 17  1  0  0  0  0
 17 49  1  0  0  0  0
 17 50  1  0  0  0  0
 17 51  1  0  0  0  0
 18 19  1  0  0  0  0
 18 52  1  0  0  0  0
 18 53  1  0  0  0  0
 19 20  1  0  0  0  0
 19 54  1  0  0  0  0
 19 55  1  0  0  0  0
 20 21  1  0  0  0  0
 21 22  1  0  0  0  0
 21 26  2  0  0  0  0
 22 23  2  0  0  0  0
 22 56  1  0  0  0  0
 23 24  1  0  0  0  0
 23 57  1  0  0  0  0
 24 25  2  0  0  0  0
 24 29  1  0  0  0  0
 25 26  1  0  0  0  0
 25 27  1  0  0  0  0
 26 58  1  0  0  0  0
 27 28  1  0  0  0  0
 27 59  1  0  0  0  0
 27 60  1  0  0  0  0
 28 29  1  0  0  0  0
 28 61  1  0  0  0  0
 28 62  1  0  0  0  0
 29 30  1  0  0  0  0
 29 31  1  0  0  0  0
 31 32  1  0  0  0  0
 31 63  1  0  0  0  0
 31 64  1  0  0  0  0
 32 33  2  0  0  0  0
 32 34  1  0  0  0  0
M  CHG  1  34  -1
M  END
$$$$
