15   
torsion grid (-165,)
C       -1.2531126029   -0.6145271339   -0.3311072198
C        0.6165396983    0.9958096911   -0.3961601703
C       -0.3503354103   -1.5901581547   -0.1073720613
C        1.4590651262   -0.0312757664   -0.1600667442
C       -0.8716979654    0.8329598998   -0.3051241044
N       -1.4549074453    3.8190335605    1.1025508862
N       -1.4133361611    1.4343347563    1.0140720560
N       -1.4226758679    2.6719156691    1.0221362482
N        0.9969441186   -1.3159183560    0.0751035125
H       -2.2963741013   -0.8769386427   -0.4693119261
H        1.0275717353    1.9810310333   -0.5925189561
H       -0.6258422931   -2.6394278774   -0.0744457470
H        2.5378257036    0.0891639437   -0.1616213483
H       -1.3824382751    1.3874792491   -1.1025356608
H        1.6560117843   -2.0797067301    0.0911487540
15   
torsion grid (-150,)
C       -1.2365203702   -0.5728610289   -0.2979951441
C        0.6815738796    0.9784103293   -0.3895781323
C       -0.3601758636   -1.5796846729   -0.1069068067
C        1.4963386911   -0.0779933759   -0.1877878852
C       -0.8082867961    0.8612660017   -0.2678897934
N       -1.7827518105    3.8046769680    1.0202302166
N       -1.2837033236    1.4713148421    1.0738791959
N       -1.5331193664    2.6816677144    1.0070000451
N        0.9991982129   -1.3507615275    0.0411836445
H       -2.2910940738   -0.7999934808   -0.4106214035
H        1.1174297277    1.9541861770   -0.5787837732
H       -0.6688113771   -2.6197363150   -0.0749239200
H        2.5780445637    0.0086606516   -0.2119099574
H       -1.3186650076    1.4397034290   -1.0481031433
H        1.6337809578   -2.1350805703    0.0369543756
15   
torsion grid (-135,)
C       -1.2191806661   -0.5211278911   -0.2697906981
C        0.7482867128    0.9638605563   -0.3981972517
C       -0.3740703451   -1.5577235791   -0.0953071842
C        1.5300256759   -0.1206337413   -0.2157171365
C       -0.7414592438    0.8978348722   -0.2491479608
N       -2.1024103558    3.7165718667    0.9848318182
N       -1.1538977530    1.5299098003    1.1048437225
N       -1.6408586406    2.6627324988    1.0024410220
N        0.9951381583   -1.3763602696    0.0230135184
H       -2.2831482924   -0.7119920814   -0.3603351332
H        1.2126669805    1.9253191691   -0.5916780846
H       -0.7179870247   -2.5863051643   -0.0532885151
H        2.6133077699   -0.0706575668   -0.2616289680
H       -1.2452665066    1.4943863262   -1.0195661473
H        1.6020915748   -2.1820396541    0.0042745169
15   
torsion grid (-120,)
C       -1.2028190887   -0.4620034526   -0.2480026494
C        0.8118876269    0.9529198817   -0.4193591678
C       -0.3920772183   -1.5265755673   -0.0760864690
C        1.5581490016   -0.1568955438   -0.2417816276
C       -0.6762255493    0.9403464433   -0.2470155957
N       -2.3905801264    3.5616734168    0.9901215557
N       -1.0287244354    1.6055687796    1.1086795054
N       -1.7354481012    2.6158791230    1.0068287195
N        0.9839733709   -1.3915107179    0.0159166279
H       -2.2741121054   -0.6173797853   -0.3204529053
H        1.3055925878    1.8968859811   -0.6249680696
H       -0.7712339707   -2.5418471287   -0.0166636689
H        2.6415502248   -0.1450345335   -0.3063517279
H       -1.1694143317    1.5494024588   -1.0143125154
H        1.5627201591   -2.2176542133   -0.0018044933
15   
torsion grid (-105,)
C       -1.1888908418   -0.3973141955   -0.2354927457
C        0.8702670691    0.9456660092   -0.4481463716
C       -0.4138870142   -1.4863248241   -0.0513258040
C        1.5797089306   -0.1860595349   -0.2608211667
C       -0.6149733541    0.9869860780   -0.2608013681
N       -2.6347104456    3.3475246006    1.0320828498
N       -0.9152847339    1.6933276417    1.0859785772
N       -1.8119292932    2.5433134677    1.0185094251
N        0.9665571863   -1.3957201448    0.0257515047
H       -2.2654049624   -0.5183048914   -0.2986726865
H        1.3931730956    1.8689628891   -0.6735845970
H       -0.8266312010   -2.4869189097    0.0297209419
H        2.6619316717   -0.2128558675   -0.3390429962
H       -1.0933586113    1.6028260853   -1.0321240793
H        1.5166705484   -2.2413332618    0.0127160349
15   
torsion grid (-90,)
C       -1.1788695919   -0.3300629873   -0.2297796000
C        0.9213273537    0.9417328659   -0.4801801515
C       -0.4380580698   -1.4388185905   -0.0240695949
C        1.5942482314   -0.2083836235   -0.2738506646
C       -0.5605417144    1.0347551077   -0.2877976810
N       -2.8236610616    3.0885239517    1.1038452292
N       -0.8206470570    1.7922972064    1.0379758302
N       -1.8671332268    2.4529905834    1.0344408025
N        0.9448916077   -1.3914344829    0.0435748352
H       -2.2589673552   -0.4191850733   -0.2880691691
H        1.4723443416    1.8426130658   -0.7277269624
H       -0.8821537802   -2.4236113213    0.0814016934
H        2.6742847541   -0.2723145986   -0.3599476295
H       -1.0212503397    1.6491402859   -1.0713127371
H        1.4674239523   -2.2544672475    0.0462433182
15   
torsion grid (-75,)
C       -1.1742042661   -0.2640121858   -0.2448802049
C        0.9624741996    0.9401625280   -0.5186396197
C       -0.4661512988   -1.3857712700    0.0017952713
C        1.6011141205   -0.2211805105   -0.2731266871
C       -0.5163530468    1.0811105024   -0.3318344524
N       -2.9406753238    2.7973605851    1.2231575297
N       -0.7474362405    1.8917333843    0.9658702317
N       -1.8942090208    2.3472962746    1.0629822693
N        0.9168611627   -1.3740208057    0.0830812098
H       -2.2554177899   -0.3274078822   -0.3164840888
H        1.5391472298    1.8160785362   -0.7953452821
H       -0.9380401578   -2.3548955255    0.1296007299
H        2.6787554992   -0.3200634582   -0.3559992885
H       -0.9567135841    1.6890955588   -1.1321620275
H        1.4140865609   -2.2517105896    0.1067319278
15   
torsion grid (-60,)
C       -1.1742075834   -0.2066450524   -0.2676763412
C        0.9915403596    0.9405880283   -0.5523798592
C       -0.4947578211   -1.3355878763    0.0230162875
C        1.6010884201   -0.2260310764   -0.2635900794
C       -0.4858083183    1.1204697128   -0.3883937109
N       -2.9822363807    2.5081983241    1.3703044219
N       -0.7061531885    1.9967241491    0.8682769923
N       -1.8967994364    2.2459742218    1.0938515985
N        0.8868040114   -1.3516212590    0.1212613735
H       -2.2550662940   -0.2511124062   -0.3551836045
H        1.5910178405    1.7938623183   -0.8504139303
H       -0.9894804723   -2.2901310019    0.1727166106
H        2.6769444141   -0.3518542588   -0.3318805306
H       -0.9034910809    1.7098030904   -1.2145647307
H        1.3638435739   -2.2388617721    0.1794030211
15   
torsion grid (-45,)
C       -1.1819936205   -0.1620586128   -0.3132258611
C        1.0075900216    0.9434304756   -0.5853526936
C       -0.5255552406   -1.2887611473    0.0344182925
C        1.5925855218   -0.2196863512   -0.2389335545
C       -0.4707129238    1.1501301006   -0.4577069771
N       -2.9363967485    2.2378096464    1.5553610028
N       -0.6944404103    2.0870451805    0.7550651933
N       -1.8686045122    2.1464367438    1.1371369187
N        0.8519732475   -1.3194798226    0.1718862078
H       -2.2597315720   -0.1987933368   -0.4345217866
H        1.6263226522    1.7759654857   -0.9023855166
H       -1.0372825726   -2.2317285983    0.1994980119
H        2.6675548981   -0.3639678517   -0.2777757692
H       -0.8619495135    1.7185140648   -1.3104894110
H        1.3138788168   -2.2110808351    0.2717734609
15   
torsion grid (-30,)
C       -1.1933986813   -0.1299207139   -0.3735676376
C        1.0116442306    0.9482096736   -0.6135075777
C       -0.5583585114   -1.2482266576    0.0365144101
C        1.5758741107   -0.2044768470   -0.2037185717
C       -0.4684418349    1.1719801052   -0.5337417255
N       -2.8126748361    1.9926553440    1.7518661434
N       -0.7120175212    2.1605189218    0.6365584381
N       -1.8130758865    2.0514190219    1.1852274916
N        0.8123810480   -1.2819246620    0.2257142860
H       -2.2654650062   -0.1664715216   -0.5366620280
H        1.6467741961    1.7630221465   -0.9440520745
H       -1.0827661662   -2.1821125466    0.2127840909
H        2.6501374028   -0.3586683453   -0.2019562797
H       -0.8307205342    1.7201731728   -1.4110587682
H        1.2633460339   -2.1724019498    0.3743473215
15   
torsion grid (-15,)
C       -1.0475164012   -0.4482842383    0.0624631577
C        0.9014925006    0.9398310516   -0.5302237886
C       -0.2396259929   -1.5294516323    0.0243756235
C        1.6456804718   -0.1832765628   -0.5553323633
C       -0.5009878772    0.9447437555    0.0015810141
N       -1.7265312312    0.6801627578    3.1442305171
N       -0.4618156807    1.6633303293    1.3790073735
N       -1.1328962062    1.1326081399    2.2684998656
N        1.1228896377   -1.4151931305   -0.1854253816
H       -2.1138291350   -0.5962283541    0.1977159344
H        1.3488887387    1.8803201216   -0.8333899020
H       -0.6191417317   -2.5410964416    0.1276432170
H        2.6813930176   -0.1894190815   -0.8794481185
H       -1.1463839467    1.5990156227   -0.5936735469
H        1.6664004179   -2.2493863045   -0.3493009665
15   
torsion grid (0,)
C       -1.0836053367   -0.4302995742    0.0096454984
C        0.8868640663    0.9489224174   -0.5257870305
C       -0.2740523527   -1.5111117482    0.0256713302
C        1.6332159859   -0.1730642190   -0.4975956922
C       -0.5381766213    0.9620920521   -0.0544390115
N       -1.4471010507    0.5268097507    3.1780297742
N       -0.5686772882    1.7135191644    1.3069649978
N       -1.0329760496    1.0734604241    2.2542231369
N        1.0952899822   -1.3993765570   -0.1307458823
H       -2.1541379345   -0.5768275797    0.1095602020
H        1.3465222602    1.8850629736   -0.8240801484
H       -0.6572669953   -2.5206183948    0.1352209510
H        2.6829803684   -0.1828068249   -0.7726490510
H       -1.1577998829    1.6074505204   -0.6837411229
H        1.6469374305   -2.2355363719   -0.2515553160
15   
torsion grid (15,)
C       -1.1195173404   -0.4230602738   -0.0427817352
C        0.8681594641    0.9574038333   -0.5074724809
C       -0.3083057015   -1.5012635304    0.0182746776
C        1.6164686185   -0.1619354208   -0.4350015898
C       -0.5778251411    0.9705199325   -0.1022286964
N       -1.1401392283    0.4322924004    3.1872472938
N       -0.6880803142    1.7381914692    1.2450517402
N       -0.9241255419    1.0341527681    2.2312818618
N        1.0657693613   -1.3872551237   -0.0850898811
H       -2.1928676569   -0.5700559027    0.0201598300
H        1.3384792564    1.8928009289   -0.7909896907
H       -0.6929428443   -2.5103735698    0.1263136017
H        2.6783921551   -0.1697367669   -0.6587535540
H       -1.1715268331    1.6083780652   -0.7616031470
H        1.6260783279   -2.2223827765   -0.1656855943
15   
torsion grid (30,)
C       -1.1543407154   -0.4256546204   -0.0984750313
C        0.8461618319    0.9632636717   -0.4736990406
C       -0.3406359498   -1.4995344038   -0.0021663885
C        1.5967892033   -0.1526551310   -0.3682300601
C       -0.6178120734    0.9712236925   -0.1378563626
N       -0.8209904375    0.4047153351    3.1769390746
N       -0.8150013495    1.7352484001    1.1985759143
N       -0.8132720751    1.0180786362    2.2049203063
N        1.0362008583   -1.3816985684   -0.0519017897
H       -2.2288354996   -0.5755665696   -0.0752258829
H        1.3251585969    1.9015764381   -0.7317042322
H       -0.7247690482   -2.5099808769    0.0942513411
H        2.6684160705   -0.1539079151   -0.5399428089
H       -1.1842706449    1.6061256111   -0.8225985227
H        1.6052178142   -2.2135576666   -0.0941638813
15   
torsion grid (45,)
C       -1.1856462246   -0.4365125541   -0.1529129796
C        0.8236192937    0.9688600276   -0.4279557660
C       -0.3712505749   -1.5075340345   -0.0331131064
C        1.5740366289   -0.1458566322   -0.3010534851
C       -0.6541399731    0.9641564869   -0.1616256224
N       -0.5055784352    0.4436463925    3.1460600037
N       -0.9424595487    1.7023485125    1.1681894537
N       -0.7056515937    1.0238371202    2.1752964608
N        1.0063247192   -1.3819167490   -0.0338571803
H       -2.2598227380   -0.5886989567   -0.1672727218
H        1.3092046614    1.9128785716   -0.6505386660
H       -0.7529658374   -2.5206000612    0.0437828589
H        2.6526373923   -0.1389880002   -0.4215443097
H       -1.1939377809    1.6008872323   -0.8654741801
H        1.5836465929   -2.2088313228   -0.0392581240
15   
torsion grid (60,)
C       -1.2121787438   -0.4557430381   -0.2073575812
C        0.8011497372    0.9676771452   -0.3734129344
C       -0.3967277414   -1.5246563852   -0.0794663351
C        1.5513410314   -0.1472569169   -0.2403810158
C       -0.6849314223    0.9478470617   -0.1686721846
N       -0.2186700872    0.5695361581    3.1175914424
N       -1.0611861367    1.6422729024    1.1608366642
N       -0.6101241182    1.0631782090    2.1578722376
N        0.9803450186   -1.3913748221   -0.0321416432
H       -2.2847696796   -0.6095715155   -0.2595921496
H        1.2906409378    1.9187399765   -0.5540875889
H       -0.7739721845   -2.5413218010   -0.0341592805
H        2.6339868201   -0.1320006354   -0.3153791977
H       -1.2003674981    1.5940972949   -0.8820521329
H        1.5634806483   -2.2137476008   -0.0108756645
15   
torsion grid (75,)
C       -1.2296517560   -0.4819745657   -0.2590316662
C        0.7809512706    0.9557628269   -0.3134042872
C       -0.4133189433   -1.5503057462   -0.1383138727
C        1.5327305274   -0.1596042961   -0.1897464638
C       -0.7085326012    0.9217001133   -0.1561436635
N        0.0057628747    0.7913326489    3.1120122694
N       -1.1624611191    1.5578789109    1.1789672508
N       -0.5385461651    1.1395420137    2.1627850460
N        0.9617331994   -1.4104001356   -0.0336061110
H       -2.2990649244   -0.6364368627   -0.3536637986
H        1.2713134712    1.9131525978   -0.4546336844
H       -0.7840484784   -2.5703823315   -0.1402824998
H        2.6170014098   -0.1374745506   -0.2328261622
H       -1.2043256064    1.5854997044   -0.8677207606
H        1.5484734226   -2.2306142946   -0.0356689607
15   
torsion grid (90,)
C       -1.2396397978   -0.5097979975   -0.3049040741
C        0.7648994640    0.9356312395   -0.2532855073
C       -0.4228330120   -1.5789543387   -0.2039517123
C        1.5177658173   -0.1813175641   -0.1516510145
C       -0.7256440777    0.8895962295   -0.1295324306
N        0.1651946460    1.0716557268    3.1086780239
N       -1.2386298797    1.4552274362    1.2195610165
N       -0.4894281806    1.2389091865    2.1792384539
N        0.9486421603   -1.4378635274   -0.0466630988
H       -2.3051867245   -0.6624720550   -0.4375199669
H        1.2557733970    1.8979314317   -0.3548743565
H       -0.7872931503   -2.5997755029   -0.2590047873
H        2.6025518884   -0.1542652783   -0.1729416711
H       -1.2073788367    1.5777867128   -0.8280759265
H        1.5392228679   -2.2546156664   -0.0863503127
15   
torsion grid (105,)
C       -1.2437659953   -0.5358127543   -0.3390647343
C        0.7545339435    0.9082429832   -0.1931924611
C       -0.4270121918   -1.6067046037   -0.2701477045
C        1.5085754801   -0.2104090611   -0.1258289911
C       -0.7366229882    0.8548196194   -0.0912192944
N        0.2581666449    1.3829538161    3.0929370531
N       -1.2867651827    1.3410554489    1.2777390604
N       -0.4621526927    1.3509341501    2.1971813462
N        0.9408825686   -1.4707727705   -0.0735733066
H       -2.3058981700   -0.6838562552   -0.5009238928
H        1.2464771197    1.8733964447   -0.2551115405
H       -0.7871237057   -2.6246452657   -0.3796992138
H        2.5934707276   -0.1805561412   -0.1344559119
H       -1.2090642526    1.5713760923   -0.7681507717
H        1.5343152762   -2.2823456702   -0.1577670014
15   
torsion grid (120,)
C       -1.2435263293   -0.5577950812   -0.3594840768
C        0.7526319542    0.8756801234   -0.1343315590
C       -0.4282932952   -1.6311084977   -0.3340172037
C        1.5058024446   -0.2451736656   -0.1122327939
C       -0.7394546813    0.8194768527   -0.0437669774
N        0.2835454036    1.7037301880    3.0590375294
N       -1.3047627276    1.2223425874    1.3481447097
N       -0.4572517677    1.4679505650    2.2109523721
N        0.9377036824   -1.5062360770   -0.1171166956
H       -2.3041439723   -0.6980906426   -0.5376831575
H        1.2473434891    1.8410848910   -0.1567673206
H       -0.7881543523   -2.6421269577   -0.4958213935
H        2.5907490462   -0.2152872346   -0.1161542928
H       -1.2056491177    1.5661256408   -0.6933676471
H        1.5314768050   -2.3128966590   -0.2386688577
15   
torsion grid (135,)
C       -1.2404780052   -0.5759925625   -0.3652595154
C        0.7603762134    0.8393120658   -0.0791542557
C       -0.4283131547   -1.6509491684   -0.3917063134
C        1.5099188707   -0.2833765747   -0.1092108294
C       -0.7329885648    0.7839573055    0.0120408170
N        0.2414011831    2.0202706884    3.0074965285
N       -1.2904984316    1.1049997228    1.4271736025
N       -0.4736165264    1.5834242493    2.2188332351
N        0.9378401038   -1.5414198826   -0.1684821321
H       -2.3014288095   -0.7057282047   -0.5499935697
H        1.2596639754    1.8024845011   -0.0635424190
H       -0.7916736005   -2.6514603430   -0.6031808186
H        2.5949599138   -0.2564173815   -0.1161657671
H       -1.1959513108    1.5607785283   -0.6053962862
H        1.5288047251   -2.3422069109   -0.3347296408
15   
torsion grid (150,)
C       -1.2875498789   -0.6617122216   -0.4218377035
C        0.4839311825    1.0504882375   -0.5275626557
C       -0.3517311379   -1.5496282019   -0.0333210206
C        1.3641315102    0.1082812792   -0.1279295540
C       -0.9943841232    0.8063908502   -0.5006608941
N       -0.6845638204    3.4306942845    1.6018142254
N       -1.7095904797    1.4746141362    0.7032339788
N       -1.1563796429    2.4896878092    1.1374503604
N        0.9588857877   -1.1681228390    0.2216357547
H       -2.2983931428   -1.0046030322   -0.6146460061
H        0.8579501570    2.0256758117   -0.8213791014
H       -0.5653742573   -2.6070881058    0.0847715600
H        2.4329812699    0.2927125987   -0.0861898596
H       -1.4849765503    1.2588303172   -1.3699802036
H        1.6583011702   -1.8824457821    0.3593486380
15   
torsion grid (165,)
C       -1.2784036286   -0.6587616095   -0.3981178393
C        0.5143008700    1.0333233014   -0.4712738747
C       -0.3463137305   -1.5737436861   -0.0679247441
C        1.3894225963    0.0646453258   -0.1289215387
C       -0.9674894513    0.8066691775   -0.4280740525
N       -0.8867407559    3.6216311457    1.4145832644
N       -1.6327173681    1.4348925237    0.8221970340
N       -1.2280470264    2.5708392136    1.0940070398
N        0.9743746038   -1.2211399066    0.1736855447
H       -2.2977061377   -0.9809548064   -0.5817847882
H        0.8947503774    2.0166656651   -0.7278763317
H       -0.5726123683   -2.6323144294    0.0099347751
H        2.4610994084    0.2343907243   -0.0978655481
H       -1.4672608034    1.2974799917   -1.2719867630
H        1.6665814583   -1.9498474890    0.2641653411
15   
torsion grid (180,)
C       -1.2672353195   -0.6435026666   -0.3669915981
C        0.5587921605    1.0151795393   -0.4261522753
C       -0.3459483614   -1.5877600136   -0.0930336481
C        1.4212616855    0.0178471149   -0.1394308239
C       -0.9262449283    0.8149235089   -0.3605990827
N       -1.1471152728    3.7544986853    1.2413792229
N       -1.5309057843    1.4201671632    0.9290652351
N       -1.3168922984    2.6322673266    1.0540532599
N        0.9874702968   -1.2706829309    0.1251739901
H       -2.2977394864   -0.9382029636   -0.5332049443
H        0.9513088335    2.0019841275   -0.6501486336
H       -0.5924010791   -2.6436241049   -0.0448367175
H        2.4964490985    0.1660886820   -0.1234038261
H       -1.4339088768    1.3403918425   -1.1791937306
H        1.6663473764   -2.0158001689    0.1720710908
