23   
torsion grid (-165,)
C        3.6939685767   -0.1115930786    2.0353039408
C        2.5707347882    0.7927974631    2.5774082704
C        2.4296252518    0.5578526704    4.0953338224
C        2.9769603566    2.2659103976    2.3663659640
C        1.2006737971    0.5186161290    1.8746825057
C        0.5684611611   -0.8315573701    2.2662163471
C        1.2732064907    0.6153444888    0.3400662371
H        3.9046110448    0.0900835307    0.9805044832
H        3.4493186662   -1.1743818391    2.1329081652
H        4.6206518876    0.0624802612    2.5938654899
H        1.5975592114    1.1395951705    4.5101226850
H        3.3428549307    0.8645985407    4.6177653334
H        2.2540708127   -0.4956939759    4.3321360755
H        2.2030874781    2.9457525971    2.7419242613
H        3.1483117192    2.5015628039    1.3118402165
H        3.9052539125    2.4890186313    2.9045165244
H        0.5201202447    1.3104537163    2.2183462100
H       -0.2317184732   -1.0963163508    1.5666573219
H        1.3001060405   -1.6458480349    2.2179792278
H        0.1490510054   -0.8205318913    3.2757951704
H        0.2651350780    0.5800104241   -0.0871282906
H        1.8357396300   -0.2224276624   -0.0863215402
H        1.7404087631    1.5427741525   -0.0028018863
23   
torsion grid (-150,)
C        3.6255536748   -0.2039751950    2.0066873405
C        2.5320413360    0.7300254354    2.5583973209
C        2.4196445722    0.5300046633    4.0840316858
C        2.9598360685    2.1909961888    2.3085373721
C        1.1384366773    0.4657806307    1.8999734312
C        0.5115986454   -0.8864862949    2.3140323940
C        1.1657862202    0.5657909574    0.3637222846
H        3.8082812013   -0.0294875487    0.9418473664
H        3.3699719031   -1.2608543288    2.1350515695
H        4.5703151191   -0.0305845583    2.5342514565
H        1.6278406735    1.1606499237    4.5060385444
H        3.3594845144    0.8004290637    4.5786701497
H        2.1965096181   -0.5081387456    4.3471556675
H        2.1989366330    2.8923759330    2.6707592999
H        3.1299829888    2.3974977236    1.2477780586
H        3.8942644164    2.4124272955    2.8366531106
H        0.4769440554    1.2643384192    2.2626469905
H       -0.1213256221   -1.2846364181    1.5142450649
H        1.2775634797   -1.6488524703    2.4901875160
H       -0.0864380551   -0.8092331314    3.2262613038
H        0.1454859583    0.5260011254   -0.0329085338
H        1.7194399618   -0.2684582504   -0.0808635865
H        1.6174780544    1.4964955966    0.0091171706
23   
torsion grid (-135,)
C        3.7240752722   -0.2039621473    2.0020946646
C        2.6399129870    0.7367082618    2.5610405427
C        2.5237776667    0.5309461931    4.0857244053
C        3.0827280141    2.1947399174    2.3195708853
C        1.2431820353    0.4875856615    1.9042809716
C        0.6471197579   -0.9088997479    2.2281201593
C        1.2328327305    0.7138789815    0.3816868282
H        3.8880566183   -0.0412477991    0.9321776471
H        3.4706638863   -1.2592284136    2.1459893867
H        4.6782602348   -0.0250787707    2.5105991926
H        1.7586856027    1.1906125115    4.5124769971
H        3.4746247610    0.7607099244    4.5798762418
H        2.2592102436   -0.4982476289    4.3455866937
H        2.3110529317    2.9020946169    2.6459963737
H        3.2973595751    2.3927694661    1.2653998753
H        3.9958091951    2.4152963337    2.8840050433
H        0.5760704553    1.2435102372    2.3397969956
H        0.2362158150   -1.3813151715    1.3302555347
H        1.3991979248   -1.6029014616    2.6134462412
H       -0.1490391456   -0.8537985153    2.9762493246
H        0.2110174613    0.6217468087   -0.0022965432
H        1.8432966969   -0.0320113095   -0.1391990672
H        1.5977993309    1.7057122090    0.1010454349
23   
torsion grid (-120,)
C        3.7338195549   -0.3707358913    2.1810494896
C        2.7034422585    0.6399525112    2.7202475825
C        2.6032390887    0.4984564154    4.2529395543
C        3.2070551802    2.0657557024    2.4156257782
C        1.2891411640    0.4260270584    2.0903243040
C        0.6828336374   -0.9756741038    2.3763847520
C        1.2244481123    0.7199270081    0.5817163013
H        3.8662552321   -0.2732329362    1.0986276597
H        3.4445139447   -1.4053488960    2.3913352187
H        4.7114852673   -0.2025982554    2.6469680086
H        1.8936257708    1.2247270624    4.6669452354
H        3.5773007385    0.6804631768    4.7210504631
H        2.2748556631   -0.4992884756    4.5587753354
H        2.4659134972    2.8193267055    2.7080845655
H        3.4301111713    2.2060107174    1.3539633516
H        4.1282398540    2.2722325422    2.9721263569
H        0.6458459725    1.1695939478    2.5800893839
H        0.4865750876   -1.5200574580    1.4469368828
H        1.3299967662   -1.6090231386    2.9871989038
H       -0.2726546160   -0.8951941895    2.9044017672
H        0.1995192727    0.5827269493    0.2196019984
H        1.8640498199    0.0376288068    0.0106118552
H        1.5201201642    1.7446178463    0.3408363634
23   
torsion grid (-105,)
C        3.6708136019   -0.4433810617    2.2961999454
C        2.6073316773    0.5802468156    2.7385919051
C        2.4628765118    0.5325311493    4.2731127414
C        3.0923201360    1.9941344241    2.3592956097
C        1.2218146022    0.2934186199    2.0752745710
C        0.6777735936   -1.1303665548    2.3543753725
C        1.1697721709    0.5715180604    0.5642085801
H        3.8220335491   -0.4249052711    1.2118060335
H        3.3959063245   -1.4646389542    2.5788262397
H        4.6358248143   -0.2201229346    2.7654621726
H        1.7270820126    1.2676257760    4.6202528921
H        3.4189072005    0.7647330925    4.7558914327
H        2.1468634719   -0.4509692175    4.6332662570
H        2.3268812140    2.7485264931    2.5780943328
H        3.3471675714    2.0700349849    1.2981712119
H        3.9899903603    2.2562466658    2.9306063937
H        0.5312722363    1.0056638026    2.5483081391
H        0.7797465983   -1.7730793994    1.4731050103
H        1.1620755728   -1.6285542897    3.1965975193
H       -0.3941533935   -1.0922378547    2.5775992946
H        0.1737437611    0.3308633747    0.1757382594
H        1.8895621902   -0.0466529113    0.0157143826
H        1.3689203777    1.6193533355    0.3240462887
23   
torsion grid (-90,)
C        3.6489301944   -0.5073361199    2.5585342064
C        2.5762005584    0.5431008637    2.9052416334
C        2.4086514346    0.6061628965    4.4369118374
C        3.0633006540    1.9274136451    2.4317888339
C        1.2036103671    0.2010295465    2.2406237632
C        0.6897889632   -1.2165475401    2.5707513405
C        1.1653788884    0.4054982896    0.7173404669
H        3.8049698750   -0.5846662262    1.4773080985
H        3.3785859000   -1.5006698428    2.9306963492
H        4.6102378741   -0.2361595608    3.0098083602
H        1.6642911281    1.3599107564    4.7196765398
H        3.3563625168    0.8784983308    4.9150953778
H        2.0936090956   -0.3510252907    4.8627135113
H        2.2917612611    2.6924658795    2.5812491154
H        3.3362884121    1.9262615406    1.3724513913
H        3.9498495680    2.2346970391    2.9979596445
H        0.4889961112    0.9152902449    2.6744565656
H        1.0465109343   -1.9473291160    1.8361242420
H        0.9707181322   -1.5619366465    3.5681903233
H       -0.4045592036   -1.2389489398    2.5155087903
H        0.1865964363    0.1070859450    0.3250232074
H        1.9183786078   -0.2078038222    0.2094001724
H        1.3279453071    1.4479148489    0.4309699984
23   
torsion grid (-75,)
C        3.6868450523   -0.4537881086    2.3923272079
C        2.6274731144    0.5862332029    2.8047495793
C        2.5022344374    0.5872499684    4.3422413042
C        3.1111920514    1.9862185016    2.3749394112
C        1.2339049773    0.2822454002    2.1638802369
C        0.7094147864   -1.1334662876    2.4648686741
C        1.1746504281    0.5232759597    0.6456695714
H        3.8056632340   -0.5044039311    1.3048888457
H        3.4322214983   -1.4561433305    2.7507613679
H        4.6627689535   -0.1910698444    2.8163350423
H        1.7548131911    1.3167196331    4.6761306083
H        3.4589083955    0.8560982306    4.8042613098
H        2.2155434300   -0.3918640623    4.7368693349
H        2.3471058782    2.7481438941    2.5712255770
H        3.3611900397    2.0258157545    1.3107242758
H        4.0115604229    2.2670417248    2.9329206170
H        0.5348924242    0.9931570045    2.6282075620
H        1.2384715884   -1.8880124553    1.8721820285
H        0.7962801019   -1.4058906992    3.5198704085
H       -0.3504078458   -1.2041592506    2.1957544652
H        0.1800409648    0.2670624738    0.2639619144
H        1.8976713672   -0.1014096394    0.1090453488
H        1.3669100476    1.5660715010    0.3803206846
23   
torsion grid (-60,)
C        3.9543602378   -0.1964189248    2.2589378458
C        2.8358673832    0.7149874290    2.7995714135
C        2.7065128000    0.4920951329    4.3204897961
C        3.2435455001    2.1859322002    2.5751088886
C        1.4625602762    0.4381809184    2.1042401375
C        0.8579011510   -0.9354692728    2.4443619346
C        1.4980210229    0.6047143922    0.5748409972
H        4.1448267095   -0.0200621959    1.1956853264
H        3.7151808329   -1.2570085432    2.3882226280
H        4.8906333957   -0.0048443990    2.7954803474
H        1.8659870748    1.0616790016    4.7351310241
H        3.6168733806    0.8216350970    4.8337918752
H        2.5550512219   -0.5620681161    4.5702251060
H        2.4624240734    2.8703352868    2.9270156035
H        3.4343016163    2.4066974964    1.5208830036
H        4.1617118411    2.4173926313    3.1267671246
H        0.7720236875    1.1987735064    2.4970069393
H        1.5196680272   -1.7548683813    2.1423508487
H        0.6513194649   -1.0470296828    3.5120232181
H       -0.0903470701   -1.0712731928    1.9127922145
H        0.4861623617    0.5173992616    0.1641524109
H        2.1074522779   -0.1726371334    0.1011694667
H        1.8919469500    1.5766360269    0.2656905207
23   
torsion grid (-45,)
C        3.9575146710   -0.1005050478    2.2551069929
C        2.8235683651    0.7778878431    2.8173479647
C        2.6871568889    0.5094877065    4.3302143882
C        3.2111095182    2.2601260049    2.6372317561
C        1.4564087945    0.5015808435    2.1100328925
C        0.8425413228   -0.8654158006    2.4725206609
C        1.5261362083    0.6341502038    0.5777611839
H        4.1652123104    0.1272671752    1.2050626448
H        3.7260311305   -1.1681688097    2.3287042255
H        4.8822210395    0.0723631192    2.8173005125
H        1.8490193026    1.0728259074    4.7579481123
H        3.5975009944    0.8158187443    4.8578962341
H        2.5240144512   -0.5506457096    4.5454880446
H        2.4289709865    2.9221451035    3.0272269792
H        3.3789822052    2.5200197537    1.5878767007
H        4.1367930597    2.4834553624    3.1797657230
H        0.7655027130    1.2760283821    2.4718608862
H        1.5870426093   -1.6680604236    2.4441769951
H        0.4157262939   -0.8635620527    3.4801339695
H        0.0385514062   -1.1273213593    1.7770452401
H        0.5182858227    0.5917635745    0.1506342902
H        2.1016188321   -0.1846315399    0.1322825968
H        1.9775643239    1.5766307847    0.2552904559
23   
torsion grid (-30,)
C        3.8889470772   -0.1984745381    2.2315950957
C        2.7832022172    0.7114383037    2.7990055666
C        2.6729352661    0.4838123413    4.3210451329
C        3.1920412904    2.1820398665    2.5751609570
C        1.3937463037    0.4404719087    2.1351386982
C        0.7889023846   -0.9312241486    2.5182863467
C        1.4181091076    0.5774764202    0.6014670330
H        4.0696370870   -0.0027837784    1.1701051205
H        3.6468372254   -1.2606446633    2.3407922991
H        4.8312753695   -0.0222259735    2.7625604817
H        1.8734410316    1.0974517799    4.7534523339
H        3.6093648370    0.7572365533    4.8204508978
H        2.4626073663   -0.5611891809    4.5670511162
H        2.4203716086    2.8670453538    2.9458679422
H        3.3635619330    2.4083705647    1.5187126018
H        4.1213347262    2.4070890609    3.1107344436
H        0.7194661310    1.2191154107    2.5166472362
H        1.5584333483   -1.6814015084    2.7230752946
H        0.1851566008   -0.8603346483    3.4290751106
H        0.1404255093   -1.3169995719    1.7258944136
H        0.3985603174    0.5242904441    0.2043338496
H        1.9894854586   -0.2336271949    0.1370539712
H        1.8482606321    1.5262983878    0.2687119509
23   
torsion grid (-15,)
C        3.8877091108   -0.3490805909    2.7970499490
C        2.6958323590    0.6110786279    2.9706706631
C        2.2557654448    0.6146897408    4.4495173198
C        3.1598456713    2.0398854240    2.6194142266
C        1.4783233829    0.2105035846    2.0755082972
C        0.8454888237   -1.1526506447    2.4656502483
C        1.7952039448    0.2212438710    0.5690726842
H        4.2823716516   -0.3231368836    1.7764562272
H        3.6202466897   -1.3855220849    3.0268982452
H        4.7037142230   -0.0648372048    3.4711396177
H        1.4047380202    1.2891067131    4.6030108440
H        3.0728547740    0.9578245284    5.0942554121
H        1.9598963086   -0.3796487622    4.7966468310
H        2.3268265438    2.7509498085    2.6728223899
H        3.5905164932    2.0999618242    1.6156975120
H        3.9292568850    2.3759285033    3.3237137272
H        0.7226565730    0.9892596584    2.2441162639
H        1.4887936531   -1.7451401675    3.1211973005
H       -0.0973345789   -1.0159233248    3.0050600846
H        0.6288818481   -1.7614123620    1.5826462181
H        0.8831644002    0.0256301991   -0.0054097937
H        2.5179301909   -0.5586747312    0.3052069390
H        2.1937426335    1.1812654531    0.2295611495
23   
torsion grid (0,)
C        3.8245598371   -0.3924365001    2.8074101108
C        2.6565600998    0.6015214642    2.9546869156
C        2.2255515046    0.6670391539    4.4342921315
C        3.1514128527    2.0055523263    2.5505560217
C        1.4280342171    0.1950050746    2.0781529616
C        0.8322070933   -1.1930199815    2.4417242641
C        1.6886707793    0.2660408553    0.5636848281
H        4.1929513715   -0.4323877554    1.7771984272
H        3.5403831733   -1.4079548820    3.1013006061
H        4.6640567424   -0.0899651712    3.4437663446
H        1.4063527795    1.3829459449    4.5715061242
H        3.0610041599    0.9920772463    5.0646847589
H        1.8877182270   -0.3020210327    4.8132428350
H        2.3310244958    2.7332607677    2.5597915809
H        3.5982036336    2.0134211377    1.5521176092
H        3.9158415573    2.3577054648    3.2523587297
H        0.6615802466    0.9506964419    2.2976068429
H        1.3610862710   -1.6853377469    3.2610884929
H       -0.2189934441   -1.1155394772    2.7355717318
H        0.8795778963   -1.8777191871    1.5883946435
H        0.7772805365    0.0008464405    0.0164851361
H        2.4685366293   -0.4394371211    0.2556670075
H        1.9859345642    1.2657832978    0.2356232597
23   
torsion grid (15,)
C        3.8086483701   -0.4047214682    2.7948044471
C        2.6543553458    0.6068462020    2.9332759053
C        2.2334435702    0.6996516894    4.4138608071
C        3.1627219767    1.9983372647    2.5047066411
C        1.4209996501    0.1972497142    2.0655338888
C        0.8725708295   -1.2160738898    2.3858355940
C        1.6376399923    0.3292897848    0.5490933962
H        4.1528107100   -0.4846822138    1.7583291594
H        3.5174558141   -1.4055396750    3.1293813716
H        4.6661296219   -0.0918457748    3.4015068720
H        1.4328042892    1.4367881925    4.5474519525
H        3.0806428019    1.0118999576    5.0349565656
H        1.8752624345   -0.2561007817    4.8075904756
H        2.3503048879    2.7350874996    2.5041591666
H        3.6057281220    1.9837907420    1.5046005904
H        3.9330871460    2.3537408833    3.1983522720
H        0.6375333609    0.9203451987    2.3329229818
H        1.2457689124   -1.6195961835    3.3299408058
H       -0.2209861423   -1.2232619982    2.4200844967
H        1.1769228827   -1.9319137136    1.6133764654
H        0.7360332103    0.0084441650    0.0152983701
H        2.4617300819   -0.3050728881    0.2032101348
H        1.8489911861    1.3576405387    0.2438794320
23   
torsion grid (30,)
C        3.7144365835   -0.4863222939    2.9606180632
C        2.5610690464    0.5323753706    3.0424654918
C        2.1218420668    0.6809750692    4.5132412665
C        3.0771798665    1.9062489609    2.5691039277
C        1.3409624427    0.0895289065    2.1719245235
C        0.8254812256   -1.3280136609    2.5003666288
C        1.5663961832    0.2023969120    0.6551448341
H        4.0601544878   -0.6240819147    1.9306332153
H        3.4194692068   -1.4660643806    3.3496887663
H        4.5714873187   -0.1419411872    3.5506438719
H        1.3160503459    1.4182599037    4.6093145877
H        2.9604323710    1.0219604163    5.1308806400
H        1.7654756000   -0.2608414158    4.9406702136
H        2.2658012397    2.6430860428    2.5290642879
H        3.5340628569    1.8534162547    1.5765521267
H        3.8379580547    2.2870262312    3.2598605559
H        0.5372008750    0.7959046173    2.4254383627
H        0.9825561944   -1.6112178712    3.5440809329
H       -0.2419137609   -1.4186017475    2.2755248775
H        1.3493030814   -2.0779015023    1.8955408176
H        0.6838099815   -0.1637218425    0.1185565576
H        2.4184679460   -0.4045134876    0.3282601563
H        1.7404572640    1.2325185759    0.3331664321
23   
torsion grid (45,)
C        3.8002768476   -0.3619547758    2.8526019521
C        2.6471546264    0.6518115940    2.9818989893
C        2.2510202443    0.7702052140    4.4680248825
C        3.1479455075    2.0358130207    2.5210629599
C        1.4018036795    0.2258094174    2.1377160892
C        0.8910732256   -1.1906156515    2.4592541170
C        1.5999154684    0.3506767612    0.6172832286
H        4.1102277100   -0.4946673267    1.8106942155
H        3.5238376856   -1.3437458997    3.2497086438
H        4.6760378269   -0.0153304250    3.4130653900
H        1.4328927481    1.4878880701    4.6014127505
H        3.1012158972    1.1204222270    5.0642529881
H        1.9305952604   -0.1863249964    4.8910864161
H        2.3338874354    2.7707501520    2.5139988037
H        3.5809628965    2.0026643508    1.5170640209
H        3.9242587725    2.4063227274    3.1999804759
H        0.6039418771    0.9302527859    2.4148986626
H        0.8352069888   -1.3888727551    3.5328975524
H       -0.1097027084   -1.3384876992    2.0395840051
H        1.5432932126   -1.9534105749    2.0189202575
H        0.7009368418    0.0079070905    0.0928913469
H        2.4341105508   -0.2675834418    0.2667274261
H        1.7876689072    1.3807434449    0.3033687819
23   
torsion grid (60,)
C        3.8794489372   -0.2193207656    2.4647013950
C        2.7050135909    0.7217297423    2.7949571597
C        2.3950533968    0.6170692874    4.3025494098
C        3.1376534658    2.1741786025    2.5058696889
C        1.4239785147    0.3793595728    1.9656487844
C        0.7982508874   -0.9815541270    2.3182983464
C        1.6316453828    0.4549936338    0.4428322931
H        4.1899482338   -0.1314673194    1.4188306185
H        3.6286346113   -1.2676944333    2.6561855460
H        4.7480489346    0.0276099300    3.0858004788
H        1.5126045858    1.2115138006    4.5685109319
H        3.2386867661    0.9917709915    4.8930481220
H        2.2124625621   -0.4153040225    4.6145937202
H        2.3176567207    2.8764861106    2.6978245943
H        3.4625995608    2.3110888184    1.4704379922
H        3.9771293037    2.4590123618    3.1501060530
H        0.6851824936    1.1500980432    2.2299688583
H        0.4929984911   -1.0425420047    3.3661244001
H       -0.0959007930   -1.1522420664    1.7086099801
H        1.4885879802   -1.8083986774    2.1176913169
H        0.6764533769    0.3103331377   -0.0737516268
H        2.3112839338   -0.3288821261    0.0911021675
H        2.0332728316    1.4191958822    0.1199557341
23   
torsion grid (75,)
C        3.7901483595   -0.2488634701    2.4307829179
C        2.6145291766    0.6820583134    2.7839527232
C        2.3254225820    0.5693557105    4.2949098281
C        3.0320623538    2.1382978083    2.4932013544
C        1.3219807708    0.3325026188    1.9760258135
C        0.6651223980   -0.9923229223    2.4112212778
C        1.5430596707    0.3107795326    0.4526953383
H        4.1023724805   -0.1317159446    1.3884495921
H        3.5422544091   -1.3031436082    2.5919129866
H        4.6566646851   -0.0175273817    3.0606076690
H        1.4541011382    1.1726801482    4.5770787758
H        3.1814108370    0.9284574810    4.8774395919
H        2.1312758101   -0.4635517301    4.5986245309
H        2.2206274887    2.8360206591    2.7317429174
H        3.3077410021    2.2890843891    1.4452673178
H        3.9001015876    2.4174170851    3.1012411127
H        0.6040076571    1.1369472755    2.1892161609
H        0.1359963659   -0.8971610000    3.3637632831
H       -0.0795840144   -1.3030018612    1.6697031822
H        1.3920545713   -1.8063866304    2.4971242299
H        0.5819143318    0.2241222499   -0.0655980354
H        2.1529772789   -0.5474689439    0.1502573058
H        2.0318938349    1.2169708224    0.0841462178
23   
torsion grid (90,)
C        3.6737191153   -0.4061186744    2.3911739033
C        2.5412103148    0.5725677746    2.7546226436
C        2.2963575765    0.5182441338    4.2768929557
C        2.9955502152    2.0045132908    2.4041751795
C        1.2085243701    0.2398467406    2.0074977340
C        0.5475242847   -1.0723000305    2.4920963315
C        1.3669939776    0.1981788596    0.4764813685
H        3.9484634494   -0.3337491680    1.3342860312
H        3.4026864265   -1.4466955807    2.5974490800
H        4.5703576838   -0.1799465797    2.9792840731
H        1.4730918082    1.1823142486    4.5666894706
H        3.1906904880    0.8388431376    4.8232307714
H        2.0470592298   -0.4912017817    4.6170057117
H        2.2080697873    2.7340850639    2.6272392082
H        3.2610042885    2.1083744459    1.3479782610
H        3.8797234481    2.2803006074    2.9900740404
H        0.5187652200    1.0629500612    2.2381253000
H       -0.1487051179   -0.8994029903    3.3183886285
H       -0.0443010999   -1.5190816501    1.6854192323
H        1.2775515582   -1.8244506343    2.8034787165
H        0.3843445129    0.1138231868   -0.0001984839
H        1.9565697638   -0.6690008985    0.1595429510
H        1.8470380441    1.0960646639    0.0772247929
23   
torsion grid (105,)
C        3.7641163006   -0.4158890023    2.3977510112
C        2.6421618574    0.5720746652    2.7690123354
C        2.3950930384    0.5133798356    4.2908396240
C        3.1127764384    2.0010440556    2.4274051063
C        1.3050984938    0.2571204877    2.0225787949
C        0.6767366715   -1.1033499975    2.4287892451
C        1.4260615189    0.3352102063    0.4900326426
H        4.0199953478   -0.3564460930    1.3351729597
H        3.4924292184   -1.4529010377    2.6198487427
H        4.6724956494   -0.1873232346    2.9666602477
H        1.6005308975    1.2094369243    4.5854633621
H        3.3017366121    0.7912494539    4.8402817567
H        2.1026379178   -0.4866402192    4.6243138443
H        2.3203926833    2.7348285961    2.6173605353
H        3.4175973234    2.0972760709    1.3812702988
H        3.9757897896    2.2768558486    3.0439261254
H        0.6072939323    1.0493040122    2.3250246427
H       -0.1906189021   -0.9710797752    3.0828486389
H        0.3196887145   -1.6453298601    1.5467436748
H        1.3807382118   -1.7651020198    2.9389570208
H        0.4401731566    0.2046873965    0.0306116934
H        2.0738443844   -0.4563868806    0.0976001441
H        1.8199225410    1.2960869171    0.1474962792
23   
torsion grid (120,)
C        3.4777902502   -0.5612746078    2.4568018640
C        2.3993746937    0.5005735344    2.7453967626
C        2.1742596812    0.5987282854    4.2682476791
C        2.9162041357    1.8710124953    2.2613103812
C        1.0433261689    0.1632047114    2.0452100729
C        0.4208114238   -1.1845512471    2.5034752597
C        1.1044422248    0.2091432771    0.5086682587
H        3.7032275247   -0.6271620422    1.3874730550
H        3.1766481809   -1.5569792576    2.7977920740
H        4.4104482948   -0.3062784049    2.9728682187
H        1.4228352206    1.3617751894    4.5039931911
H        3.1035615480    0.8778898142    4.7776398404
H        1.8355187855   -0.3470564754    4.7013492418
H        2.1477043107    2.6458042119    2.3698941445
H        3.2258798269    1.8475874566    1.2124507584
H        3.7862506781    2.1810735658    2.8510277484
H        0.3583659659    0.9647437620    2.3533503424
H       -0.5684275570   -1.0380718893    2.9481301722
H        0.3039260735   -1.8759098096    1.6628067416
H        1.0260276850   -1.7009042781    3.2524167659
H        0.1141858961   -0.0026870439    0.0904530075
H        1.7925951587   -0.5448162523    0.1102328684
H        1.4152214083    1.1866848455    0.1301233849
23   
torsion grid (135,)
C        3.4587716507   -0.5746337314    2.4465991851
C        2.3932201809    0.5036342812    2.7232142200
C        2.1784960607    0.6287007389    4.2451491181
C        2.9191251246    1.8609506889    2.2137656805
C        1.0343612125    0.1623569054    2.0308919642
C        0.4528590723   -1.2156034491    2.4365219409
C        1.0563552686    0.2749906273    0.4974474689
H        3.6585605675   -0.6786774750    1.3749664879
H        3.1559813034   -1.5550702218    2.8279077910
H        4.4052389680   -0.3106359582    2.9321652506
H        1.4450243743    1.4109961276    4.4738600708
H        3.1167946033    0.8957047155    4.7444392426
H        1.8235629309   -0.3028588173    4.6957737762
H        2.1572279327    2.6438596635    2.3108222656
H        3.2245132270    1.8155618164    1.1643288155
H        3.7934463818    2.1743503252    2.7953615676
H        0.3350429677    0.9302408081    2.3902322236
H       -0.6179620038   -1.1415970248    2.6516913196
H        0.5942644977   -1.9613280702    1.6475054319
H        0.9136460679   -1.6176852485    3.3425344223
H        0.0750030513    0.0058950988    0.0908770747
H        1.7891779253   -0.4086910086    0.0538797229
H        1.2852412252    1.2875185563    0.1543969102
23   
torsion grid (150,)
C        3.3977655615   -0.6406690063    2.6063519939
C        2.3342363223    0.4516990007    2.8302463798
C        2.1059503788    0.6311994470    4.3447811905
C        2.8700441501    1.7881878390    2.2782766362
C        0.9830635830    0.0873782001    2.1341317257
C        0.4257203651   -1.2935852855    2.5413079420
C        1.0111354381    0.1846729045    0.5997374138
H        3.5943275128   -0.8015042244    1.5410393346
H        3.0929892282   -1.5984233801    3.0400777421
H        4.3460753454   -0.3534091060    3.0748337190
H        1.3680796873    1.4184089990    4.5397583320
H        3.0394004779    0.9195930516    4.8412383756
H        1.7521015269   -0.2852279626    4.8261174621
H        2.1097263678    2.5763271664    2.3387418546
H        3.1862240996    1.7040072891    1.2344312879
H        3.7390046640    2.1197805908    2.8578200056
H        0.2662482619    0.8431674267    2.4860739472
H       -0.6683959608   -1.2947328743    2.4930528072
H        0.8002829386   -2.0882276738    1.8873171415
H        0.6850858963   -1.5649370695    3.5683380812
H        0.0430063529   -0.1233205031    0.1889272511
H        1.7708903571   -0.4768974919    0.1680553916
H        1.2072019666    1.2009039249    0.2476814788
23   
torsion grid (165,)
C        3.4612093246   -0.5141240340    2.4483396744
C        2.3999758585    0.5640993017    2.7403766853
C        2.2253239005    0.6914114430    4.2677154641
C        2.9115454961    1.9207747386    2.2147036019
C        1.0250806660    0.2190825478    2.0803162907
C        0.4812059345   -1.1674540414    2.4704951600
C        1.0141300209    0.3455788936    0.5471546343
H        3.6132545157   -0.6544418178    1.3729584403
H        3.1852589365   -1.4818555206    2.8789248555
H        4.4261002500   -0.2251232429    2.8804233744
H        1.4770538632    1.4533121999    4.5163545612
H        3.1700335011    0.9871863355    4.7378348158
H        1.9133664560   -0.2491836847    4.7309166532
H        2.1495398686    2.7020101316    2.3238136128
H        3.1955587817    1.8718874994    1.1594511490
H        3.7965648003    2.2389550462    2.7771731434
H        0.3170530763    0.9661107257    2.4678436686
H       -0.5787522295   -1.2448062007    2.2047765405
H        1.0140166953   -1.9686314815    1.9468459600
H        0.5551821518   -1.3623494655    3.5439258885
H        0.0314279817    0.0609663377    0.1548365512
H        1.7522800564   -0.3176152429    0.0820574422
H        1.2168537804    1.3655124249    0.2102684782
23   
torsion grid (180,)
C        3.6578229832   -0.3519315710    2.1026234847
C        2.5928100408    0.6462194840    2.5959844508
C        2.4840688610    0.5364829757    4.1308806921
C        3.0622332536    2.0772580433    2.2611693911
C        1.1945487616    0.3856872776    1.9455635196
C        0.5433873072   -0.9399958479    2.3774908815
C        1.2012663482    0.4624423230    0.4087134835
H        3.8310964475   -0.2631466889    1.0255730116
H        3.3757594487   -1.3881771951    2.3155377911
H        4.6137753159   -0.1637264382    2.6045534949
H        1.6793639388    1.1730050492    4.5183280621
H        3.4188992101    0.8573447312    4.6041135444
H        2.2892294352   -0.4891743447    4.4573636458
H        2.3170559441    2.8200155319    2.5701596630
H        3.2486879957    2.2123612651    1.1918453011
H        3.9970069454    2.3060784608    2.7853275816
H        0.5439025458    1.1953969692    2.3071348498
H       -0.4289476443   -1.0579213673    1.8866068379
H        1.1553430900   -1.8027089618    2.0913838792
H        0.3725100430   -0.9903514890    3.4559382977
H        0.1784510248    0.3825612853    0.0244795926
H        1.7770235756   -0.3590748533   -0.0313802655
H        1.6163758864    1.4025806897    0.0357441272
