28   
torsion grid (-165,)
C       -1.2217568977    0.3043227075    2.6293944596
N       -0.2859663107   -0.8835937606    2.5098607258
C        1.0628776816   -0.3885129360    2.0794100861
C       -0.8266007996   -1.8333633134    1.4669744927
C       -0.0931074902   -1.5952645535    3.8497674940
C       -1.2945946582   -2.3271028157    4.4387734541
O       -2.2989231373   -1.4300672971    4.8383989629
P       -3.8360640012   -1.6959664604    4.1268900963
O       -4.4706787824   -0.2473833787    4.5343750238
C       -4.9766928145   -0.0918987323    5.8691139072
O       -3.5722167552   -1.6567729395    2.6387164219
O       -4.4915930119   -2.8376478421    4.8251674120
H       -2.2422923146   -0.0654166675    2.7270502803
H       -0.9285011237    0.8908286694    3.4996668528
H       -1.1154696485    0.8941223443    1.7169184943
H        1.7391833013   -1.2363056388    1.9614681790
H        0.9614669438    0.1359256732    1.1289247432
H        1.4511720094    0.2945642968    2.8363436568
H       -0.1869345606   -2.7177821462    1.4414288286
H       -1.8628425172   -2.0748736942    1.7274983552
H       -0.7940101066   -1.3232591638    0.5026002179
H        0.7204405414   -2.3097772903    3.6906373354
H        0.2455686936   -0.8260639508    4.5478183261
H       -1.6636028976   -3.0905226152    3.7456513282
H       -0.9019443926   -2.8615021460    5.3162767958
H       -5.5205138582    0.8559416541    5.8898297281
H       -4.1525889224   -0.0570865480    6.5914188692
H       -5.6468326503   -0.9164371425    6.1259088719
28   
torsion grid (-150,)
C       -1.4585628838    0.4487158083    2.0113107873
N       -0.2331002486   -0.3603125134    2.3845292930
C        0.8804945384    0.6140356781    2.6825816779
C        0.1367701987   -1.2251582583    1.2193765637
C       -0.4180238322   -1.2573501328    3.6313877558
C       -1.8537796635   -1.5868161270    4.0477924636
O       -2.6040683597   -0.4683687338    4.4590928957
P       -1.8479320611    0.5487953565    5.6089867882
O       -3.1719500449    1.0910125971    6.3720896422
C       -4.0011374876    2.0554637617    5.7109947439
O       -1.0395049558   -0.3231323147    6.5130223605
O       -1.2137421322    1.6411528098    4.7702434321
H       -2.2888850508   -0.2282094783    1.8209723045
H       -1.6843967830    1.1204435554    2.8404104186
H       -1.2079688141    1.0011650669    1.1031635714
H        1.7705327463    0.0490373736    2.9643619991
H        1.0789815217    1.2019990848    1.7841115058
H        0.5370141011    1.2486574009    3.5047715952
H        1.0741888383   -1.7396719056    1.4343885070
H       -0.6577516965   -1.9550849644    1.0564680488
H        0.2528660068   -0.6033989988    0.3305666578
H        0.1237276966   -2.1821239114    3.4206802929
H        0.0686927254   -0.7561074024    4.4654648365
H       -2.4076413283   -2.0791056658    3.2385848534
H       -1.7423028411   -2.3079350754    4.8686811392
H       -4.7199613617    2.4114426028    6.4526837099
H       -4.5415025626    1.5902233774    4.8778570637
H       -3.4022311230    2.8916728091    5.3388081901
28   
torsion grid (-135,)
C        1.8830579799   -0.0230767470    2.0974883282
N        0.7488335870   -0.4678356357    2.9740381526
C        1.3299349064   -0.9670691133    4.2814368037
C        0.0089675657   -1.5847281551    2.2774779533
C       -0.1528328627    0.7497189889    3.2035758559
C       -1.5825035078    0.5060087116    3.6864438927
O       -1.6704025905   -0.0308723788    4.9806786850
P       -2.1372863803   -1.6713909788    5.1488774138
O       -3.2100020699   -1.5192582525    6.3568282027
C       -2.7140983312   -1.3038777975    7.6850730530
O       -2.8232907863   -2.0518475959    3.8724037668
O       -0.8956470360   -2.3779587314    5.6328483741
H        1.4929508151    0.2782012844    1.1243764385
H        2.3906251936    0.8183644959    2.5712471315
H        2.5815549517   -0.8514487340    1.9747927244
H        0.5342670120   -1.3700784415    4.9205937898
H        2.0400515448   -1.7609216832    4.0416912613
H        1.8491890323   -0.1325179267    4.7553165440
H       -0.8040941166   -1.9597593766    2.9005800309
H       -0.3923596169   -1.1973220936    1.3392794148
H        0.7252187421   -2.3825466648    2.0760867622
H        0.3876937470    1.3841500281    3.9093875710
H       -0.2097717356    1.2664866432    2.2406745350
H       -2.0356572672    1.5082079104    3.6901467198
H       -2.1471278550   -0.1012551454    2.9715609533
H       -3.5701098392   -1.4024332264    8.3567936735
H       -2.2929624862   -0.2958959397    7.7784634194
H       -1.9498209958   -2.0441722134    7.9368119263
28   
torsion grid (-120,)
C        1.8819656980   -0.0167698626    2.0510470732
N        0.7460871649   -0.4854734005    2.9132487604
C        1.3325330216   -1.0460147524    4.1939819819
C       -0.0093264583   -1.5656030384    2.1757537082
C       -0.1424620538    0.7310774847    3.1899461435
C       -1.5417380316    0.4766041182    3.7504481518
O       -1.5189596943   -0.0816071014    5.0383264133
P       -2.0024877862   -1.7109179900    5.2501105330
O       -3.2498115190   -1.5182495019    6.2728171213
C       -2.9582642485   -1.2049037333    7.6421993351
O       -2.5170341506   -2.1734163755    3.9169548801
O       -0.8281137422   -2.3503653919    5.9381999608
H        1.4905549885    0.3325640633    1.0948016893
H        2.4040879911    0.7957275035    2.5583448762
H        2.5680387591   -0.8483339428    1.8868976356
H        0.5528820185   -1.4524138664    4.8467533069
H        2.0274049550   -1.8396230800    3.9127965553
H        1.8707271174   -0.2404686287    4.6958976832
H       -0.8295602279   -1.9498758020    2.7917744532
H       -0.4050445936   -1.1357280377    1.2532991863
H        0.6978165182   -2.3624657914    1.9397773094
H        0.4306742386    1.3613659373    3.8737149693
H       -0.2438119868    1.2518933768    2.2328194517
H       -2.0028948952    1.4739293248    3.7989787211
H       -2.1406280000   -0.1318152058    3.0658903558
H       -3.9034827125   -1.2748591109    8.1856958574
H       -2.5635914029   -0.1855257052    7.7270651616
H       -2.2328701951   -1.9116340781    8.0543023880
28   
torsion grid (-105,)
C        1.8804317448    0.0490430708    2.0308706921
N        0.7793937016   -0.4719205564    2.9084029885
C        1.4189349881   -1.0879132041    4.1378633592
C        0.0078340213   -1.5254960155    2.1488165199
C       -0.1116549788    0.7215046923    3.2656613037
C       -1.4510075714    0.4211866962    3.9372210418
O       -1.2676897510   -0.1587856099    5.2028516899
P       -1.7656437380   -1.7754796223    5.4623725616
O       -3.1223845625   -1.5502493190    6.3323786700
C       -2.9794194774   -1.1452368746    7.7014082323
O       -2.1610999298   -2.3099733537    4.1130635280
O       -0.6519233573   -2.3490866238    6.2857524581
H        1.4517754233    0.4387785491    1.1068399330
H        2.4134989654    0.8421912015    2.5570577780
H        2.5671468791   -0.7667000692    1.8026643038
H        0.6756974281   -1.5176650981    4.8099962118
H        2.1035622801   -1.8643105054    3.7919424218
H        1.9727691797   -0.3051441513    4.6578231078
H       -0.7629627446   -1.9620113845    2.7971631758
H       -0.4456858467   -1.0513264684    1.2758390653
H        0.7184681120   -2.2889416099    1.8271801904
H        0.4968953311    1.3560999389    3.9141624768
H       -0.2940238800    1.2498894476    2.3248236687
H       -1.9384992480    1.4009885539    4.0469302375
H       -2.0861077356   -0.2005546197    3.2993205053
H       -3.9790820473   -1.1743185901    8.1415430073
H       -2.5835433907   -0.1244647509    7.7617313486
H       -2.3116042225   -1.8248871920    8.2378984890
28   
torsion grid (-90,)
C        1.8663718936   -0.0170054489    1.9984736543
N        0.6365484427   -0.5451209398    2.6771823472
C        1.0704519193   -1.3369375855    3.8967475363
C       -0.1040974210   -1.4591071320    1.7302661385
C       -0.2190674827    0.6689538888    3.0476111915
C       -1.5969136885    0.4152332574    3.6540638889
O       -1.5032777899   -0.1160935087    4.9515007453
P       -2.0423124566   -1.7155046488    5.2109658965
O       -3.6097924768   -1.4584820352    5.5890687840
C       -3.8971430184   -0.9528820570    6.9006667443
O       -2.0107020066   -2.3713786218    3.8525080129
O       -1.2430334104   -2.1884732827    6.3792212300
H        1.5760118482    0.5549100916    1.1162480345
H        2.4112904716    0.6227456511    2.6941953045
H        2.4955401301   -0.8564172342    1.7013454073
H        0.2476551097   -1.9544475403    4.2430003125
H        1.9096411931   -1.9663205364    3.5959320788
H        1.3698922976   -0.6438992513    4.6814154632
H       -0.9465136173   -1.9048077487    2.2711739226
H       -0.4315156648   -0.8709494363    0.8704844006
H        0.5900734397   -2.2364286030    1.4055702762
H        0.3847787904    1.2523341250    3.7466416701
H       -0.3349349914    1.2381942384    2.1201801982
H       -2.0656510880    1.4089898341    3.7034995436
H       -2.2096228906   -0.2094254420    2.9979436292
H       -4.9849293596   -0.9540098428    7.0052821467
H       -3.5204180085    0.0711395913    7.0113949465
H       -3.4437791041   -1.5878216443    7.6667658685
28   
torsion grid (-75,)
C        1.7528318885    0.0249388589    1.8829699046
N        0.5861230177   -0.5439519178    2.6353688834
C        1.1178525774   -1.3567987274    3.8015265743
C       -0.2053818809   -1.4505498951    1.7228022784
C       -0.2640047605    0.6413544010    3.0967976727
C       -1.5828440669    0.3386394777    3.8017131803
O       -1.3690695571   -0.2211044114    5.0739963899
P       -1.9655337494   -1.7975537545    5.3429512349
O       -3.5675249354   -1.4913021290    5.4887715265
C       -4.0152137853   -0.9299419568    6.7311417245
O       -1.7871534784   -2.5139248242    4.0248082141
O       -1.3395713863   -2.2229231255    6.6255418512
H        1.3883120792    0.6087006364    1.0366528468
H        2.3329121323    0.6618608142    2.5523579100
H        2.3762240901   -0.7940178509    1.5232532181
H        0.3197681890   -1.9920218041    4.1782504834
H        1.9416648846   -1.9660220262    3.4256466440
H        1.4647446889   -0.6759258313    4.5775057403
H       -0.9870298273   -1.9354215661    2.3176141649
H       -0.6165155249   -0.8476308492    0.9106184328
H        0.4791521254   -2.1992517733    1.3199694996
H        0.3777702416    1.2242157607    3.7616730191
H       -0.4632094487    1.2278914220    2.1946708311
H       -2.0731638433    1.3170688651    3.9115784308
H       -2.2307998594   -0.2844938365    3.1785025706
H       -5.1057511055   -0.8809204216    6.6786257940
H       -3.6098603597    0.0798089595    6.8701219213
H       -3.7059583458   -1.5575930632    7.5713457757
28   
torsion grid (-60,)
C        1.2877097073   -0.2859711591    1.5937984385
N        0.4629974715   -0.5519698977    2.8183461931
C        1.3793621544   -1.0564495156    3.9167835159
C       -0.5659548089   -1.6138363627    2.5091067776
C       -0.2112968499    0.7677096338    3.1964823051
C       -1.2315619497    0.7428503608    4.3300426068
O       -0.6208041672    0.5034138233    5.5748959093
P       -1.1662467559   -0.8676896134    6.4334209165
O       -2.7537196174   -0.4844961951    6.6111124714
C       -3.0875024382    0.4500347268    7.6475888298
O       -1.1315380207   -1.9903578552    5.4217995233
O       -0.4189599722   -0.8491399542    7.7188944879
H        0.6382207941    0.0564749817    0.7869979752
H        2.0313006870    0.4787131190    1.8231351171
H        1.7884468812   -1.2076941743    1.2964969459
H        0.7654517102   -1.4689110724    4.7165679991
H        2.0110992547   -1.8335278987    3.4826073414
H        1.9860818012   -0.2252284367    4.2746947089
H       -1.0691131212   -1.8848260539    3.4438188057
H       -1.2584429360   -1.2162299371    1.7644633802
H       -0.0401777504   -2.4796009659    2.1024906517
H        0.6003888968    1.4537726080    3.4494988264
H       -0.6993120138    1.1206358596    2.2827550078
H       -1.6771314881    1.7485732724    4.3291954057
H       -2.0391540289    0.0356957462    4.1185122368
H       -4.1784062480    0.5114319170    7.6765841025
H       -2.6709861477    1.4414483391    7.4298019696
H       -2.7032421605    0.1082967935    8.6123889001
28   
torsion grid (-45,)
C        0.5992695177   -0.9823277156    2.0694650454
N        0.4580469295   -0.1213800167    3.3029252207
C        1.2280371408    1.1516719345    3.1120620880
C        1.0377413535   -0.8636191362    4.4919483795
C       -1.0019765322    0.2706048526    3.5365506558
C       -2.0359223149   -0.8506950620    3.5464775461
O       -1.8696752967   -1.7015445662    4.6533010710
P       -1.6400225971   -3.3647589391    4.3299105430
O       -2.8085233543   -3.6040149929    3.1930822269
C       -4.1476200722   -3.8135238753    3.6651351997
O       -0.3385087903   -3.4166717848    3.5627141383
O       -1.9239819322   -4.0704732191    5.6062187609
H        0.1700155957   -1.9674349442    2.2852947746
H        0.0970355238   -0.4815144928    1.2394594172
H        1.6645427355   -1.0817678471    1.8536046503
H        1.1064776661    1.7788147382    3.9965551619
H        2.2825455459    0.9112857419    2.9745762073
H        0.8516601659    1.6736485537    2.2311673910
H        0.7953664754   -0.3083393729    5.3980228392
H        0.6166255684   -1.8693911028    4.5122800111
H        2.1192226589   -0.9094243373    4.3507795140
H       -1.0175481097    0.7979094089    4.4931352703
H       -1.2505877619    0.9785277521    2.7398578645
H       -3.0073947834   -0.3388984803    3.6171588069
H       -2.0357609015   -1.3942746835    2.5968752545
H       -4.7524001975   -4.0753090990    2.7930741949
H       -4.5491335228   -2.9026029507    4.1274772807
H       -4.1743848727   -4.6224289720    4.3998539032
28   
torsion grid (-30,)
C        0.5051581732   -1.1038607044    2.1392466405
N        0.4872274279   -0.1499341968    3.3109445916
C        1.2268172481    1.1019449027    2.9421711572
C        1.1911463840   -0.7977542977    4.4879516282
C       -0.9416576478    0.2632739436    3.6717907908
C       -1.9825962811   -0.8478585547    3.7802012843
O       -1.7004943457   -1.7312005877    4.8328728707
P       -1.4774406346   -3.3997209816    4.5100884685
O       -2.4559183257   -3.5802539365    3.1904112015
C       -3.8507858306   -3.8201288184    3.4291345545
O       -0.0759596382   -3.4798947197    3.9531782213
O       -1.9885271301   -4.1283300021    5.6992493414
H        0.1438192484   -2.0808600601    2.4776486057
H       -0.1104820506   -0.6847645451    1.3412880119
H        1.5390452060   -1.1953410343    1.8020100783
H        1.1705822604    1.8079673887    3.7721415932
H        2.2692347384    0.8524149598    2.7425693699
H        0.7752573529    1.5391829491    2.0504891921
H        1.0893084790   -0.1396206293    5.3514113765
H        0.7492612992   -1.7799928714    4.6652083272
H        2.2429556496   -0.9076524833    4.2172786547
H       -0.8625319378    0.7983186775    4.6206977468
H       -1.2562812311    0.9676410275    2.8954973268
H       -2.9306713711   -0.3250527895    3.9787975659
H       -2.1009668667   -1.3664923329    2.8237804752
H       -4.2947909203   -4.0885981764    2.4669549118
H       -4.3454559026   -2.9210152786    3.8196989860
H       -3.9831251738   -4.6331097104    4.1472159888
28   
torsion grid (-15,)
C        0.5103072626   -1.0160333037    2.0571194651
N        0.5314185881   -0.0532632327    3.2214274142
C        1.1852019467    1.2264255980    2.7909419426
C        1.3500379282   -0.6572596187    4.3475616274
C       -0.8839551057    0.3009662222    3.6875222507
C       -1.8700375873   -0.8577174078    3.8237053288
O       -1.4227152319   -1.7986639804    4.7576525977
P       -1.1486852488   -3.4431772383    4.3521397516
O       -1.9381178863   -3.5266755181    2.8961037903
C       -3.3232945296   -3.9042021644    2.9078655105
O        0.3146282718   -3.4717424413    3.9900808820
O       -1.8169812617   -4.2675549985    5.3913942359
H        0.2406700090   -2.0103742699    2.4208567128
H       -0.1939668301   -0.6454395512    1.3106486461
H        1.5164848992   -1.0486721457    1.6361429875
H        1.1476740419    1.9411635618    3.6144598960
H        2.2237344012    1.0234843037    2.5282270171
H        0.6572202276    1.6284544428    1.9250255472
H        1.2981783303    0.0164925599    5.2036707596
H        0.9613568092   -1.6511086270    4.5790259486
H        2.3791608149   -0.7387631357    3.9927788519
H       -0.7570459989    0.8061091744    4.6473702933
H       -1.2748357747    1.0192786661    2.9602875696
H       -2.8086116139   -0.3965934838    4.1678214898
H       -2.0676731529   -1.3087474968    2.8463689168
H       -3.6003505216   -4.1235425049    1.8732445296
H       -3.9537225395   -3.0892964527    3.2881243912
H       -3.4752913728   -4.7845716800    3.5363852303
28   
torsion grid (0,)
C       -0.8877283193   -1.4257778275    1.6834097971
N        0.1689555446   -0.7610440223    2.5311404645
C       -0.3486020818    0.5901592388    2.9956664431
C        1.3956221807   -0.5372351954    1.6963108996
C        0.5867443201   -1.6452838049    3.7113575723
C       -0.5498336495   -2.3009543491    4.4951958121
O       -1.4217091219   -1.3262004416    4.9839483835
P       -3.1058769710   -1.2829498684    4.6585352256
O       -3.2462181008   -2.6347016167    3.6960981741
C       -3.7047446884   -3.8541788378    4.2992227226
O       -3.8339316336   -1.4679838914    5.9410830284
O       -3.2191303592   -0.1188070800    3.7123358269
H       -0.5502311767   -2.4318549725    1.4290482096
H       -1.8313309935   -1.4520160710    2.2252587400
H       -1.0085782029   -0.8318643837    0.7762941774
H        0.3850155685    1.0150986992    3.6817115991
H       -0.4434406918    1.2197063349    2.1087578242
H       -1.3265465380    0.4664958196    3.4693796613
H        2.1754149482   -0.0976476709    2.3198502239
H        1.7371482584   -1.4908319422    1.2910509751
H        1.1507500756    0.1437013739    0.8807891651
H        1.2407938847   -2.4201179656    3.2997550041
H        1.1751781288   -0.9977754856    4.3646103410
H       -1.0623455216   -3.0389090880    3.8703367346
H       -0.0657079371   -2.8441294027    5.3214449595
H       -3.9765110869   -4.5284351685    3.4822792317
H       -4.5694038778   -3.6646223618    4.9386207257
H       -2.9173318275   -4.3183703012    4.9078716538
28   
torsion grid (15,)
C       -0.8711666634   -1.4819049065    1.5985484219
N        0.1428942453   -0.8452514700    2.5200745835
C       -0.4537305156    0.4170715935    3.1151984698
C        1.3604277735   -0.4692072090    1.7284844649
C        0.6008401337   -1.8159428334    3.6127417137
C       -0.4910119536   -2.6228285931    4.3129050896
O       -1.4098328769   -1.7848675625    4.9541459569
P       -3.0852701858   -1.7977677630    4.5842639489
O       -3.1929422574   -3.2222782224    3.7419885253
C       -3.4888992912   -4.4160176521    4.4827561842
O       -3.8181082323   -1.8615930100    5.8746483171
O       -3.2161171000   -0.7261652781    3.5317692367
H       -0.4950736866   -2.4575643205    1.2867275673
H       -1.8292600898   -1.5560148126    2.1183554602
H       -0.9838971077   -0.8310852048    0.7299796895
H        0.2581805212    0.8219538862    3.8354318187
H       -0.6042146261    1.1221951439    2.2955821651
H       -1.4146752062    0.1761956179    3.5747675326
H        2.1140099614   -0.0621517624    2.4044067165
H        1.7516155642   -1.3543755078    1.2248446756
H        1.0848777574    0.2838902981    0.9898072807
H        1.3037483974   -2.5052324824    3.1347899703
H        1.1445919061   -1.2050912579    4.3364538593
H       -0.9765624623   -3.3030531181    3.6063578503
H        0.0396154315   -3.2422438250    5.0523478114
H       -3.7461676239   -5.1868528573    3.7513639266
H       -4.3246502256   -4.2462971585    5.1653250826
H       -2.6199750146   -4.7456707107    5.0679466787
28   
torsion grid (30,)
C       -1.0937685211   -1.4684856338    1.8475458955
N        0.0167966800   -0.9249461457    2.7161103559
C       -0.4714218722    0.3278633956    3.4180184201
C        1.1889517927   -0.5629034650    1.8529062181
C        0.5049542803   -1.9736885215    3.7183203922
C       -0.5590094569   -2.7362469553    4.5033940342
O       -1.2896254980   -1.8929587747    5.3537550997
P       -2.9908671997   -1.7746972604    5.1829741502
O       -3.3377979707   -3.2872547488    4.6142487388
C       -3.5145561008   -4.3329930244    5.5813582350
O       -3.5335456694   -1.5427671693    6.5460264938
O       -3.1761322482   -0.8713429996    3.9869940171
H       -0.7795850452   -2.4338105317    1.4465087979
H       -2.0054442227   -1.5419113881    2.4500894190
H       -1.2530510184   -0.7611202346    1.0318914405
H        0.3039627496    0.6553570108    4.1112672058
H       -0.6384817638    1.0861731255    2.6507493180
H       -1.4101283891    0.1026777574    3.9275564736
H        2.0066335883   -0.2170056430    2.4871286870
H        1.5038932439   -1.4393900507    1.2847862633
H        0.8933382345    0.2328426269    1.1686942730
H        1.0979768415   -2.6891788218    3.1402403753
H        1.1677387792   -1.4402416866    4.4032288655
H       -1.2055429719   -3.3080910337    3.8305567177
H        0.0050504957   -3.4678249401    5.1019104741
H       -3.9075463394   -5.1991245097    5.0424818171
H       -4.2153039541   -4.0215311795    6.3598458108
H       -2.5599282277   -4.6007404317    6.0532116079
28   
torsion grid (45,)
C       -0.7870284809   -1.3332395792    1.4702507970
N        0.1681773737   -0.8851723427    2.5516766004
C       -0.4224703023    0.3158173544    3.2653935051
C        1.4703563127   -0.4782771553    1.9281379486
C        0.4753896964   -2.0267312012    3.5224303305
C       -0.7107269511   -2.7678885681    4.1309470325
O       -1.4457659898   -1.9457552991    5.0029917695
P       -3.1107860907   -1.7472182164    4.6685995090
O       -3.5322621961   -3.3085829423    4.3532063082
C       -3.7930200220   -4.1566931255    5.4813098444
O       -3.7182586557   -1.2275943975    5.9210465186
O       -3.1388815058   -1.0602226603    3.3223242576
H       -0.3987216759   -2.2515233997    1.0253551247
H       -1.7768188478   -1.4720988257    1.9200294986
H       -0.8299044675   -0.5446318168    0.7168917925
H        0.1926139908    0.5368516821    4.1376735640
H       -0.4040443157    1.1521922678    2.5641338264
H       -1.4497065512    0.0817183060    3.5470344836
H        2.1635604030   -0.1749725664    2.7141961141
H        1.8840090561   -1.3205693216    1.3717856919
H        1.2936851645    0.3582296310    1.2515894239
H        1.0902316809   -2.7368406314    2.9608407881
H        1.0833653427   -1.5854341631    4.3155119910
H       -1.3353560734   -3.2167053143    3.3527287126
H       -0.2644581316   -3.5996396137    4.6963921816
H       -4.1739732773   -5.1013280341    5.0846751401
H       -4.5327798790   -3.6994358721    6.1435210142
H       -2.8751088354   -4.3447142744    6.0530103426
28   
torsion grid (60,)
C       -0.8310164275   -1.1881555614    1.5564672309
N        0.1700800931   -0.8042263274    2.6205440051
C       -0.3919170634    0.3442150557    3.4366163880
C        1.4411626038   -0.3482388854    1.9672665526
C        0.5256424399   -2.0075409710    3.4952371387
C       -0.6204151495   -2.7620920263    4.1612150463
O       -1.2299091931   -1.9955730028    5.1717399681
P       -2.9000990010   -1.6936109109    4.9874370593
O       -3.4727041551   -3.2332338841    4.9782722558
C       -3.6039599292   -3.8882692818    6.2481997724
O       -3.2986824258   -0.9351161872    6.2027673826
O       -3.0440806990   -1.1996725532    3.5660620759
H       -0.4461246659   -2.0567846849    1.0184521675
H       -1.7894182180   -1.3923266672    2.0464507893
H       -0.9324096038   -0.3430455783    0.8732085717
H        0.2345773084    0.4867383251    4.3165868854
H       -0.3726416969    1.2334307946    2.8038655595
H       -1.4157801908    0.1000545183    3.7172578991
H        2.1603830457   -0.0714933074    2.7395342335
H        1.8442777715   -1.1566244844    1.3556682400
H        1.2264119667    0.5163084706    1.3386613681
H        1.0750925235   -2.6930348330    2.8426956141
H        1.2069133571   -1.6273677911    4.2599913185
H       -1.3396462542   -3.1217415747    3.4193654365
H       -0.1502031649   -3.6498719259    4.6092319668
H       -4.0780615195   -4.8542744465    6.0565228880
H       -4.2214002277   -3.2931073537    6.9263175136
H       -2.6214355466   -4.0481293885    6.7096212926
28   
torsion grid (75,)
C       -1.0776430043   -0.4018801852    1.2918370898
N       -0.0933254339    0.0884121910    2.3271409952
C       -0.5164425880    1.4674040633    2.7990007643
C        1.2688865331    0.1965686988    1.7076919295
C        0.0232913454   -0.9074446900    3.4827043383
C       -1.2542505181   -1.2877479551    4.2250714508
O       -1.7498684707   -0.2101436858    4.9806225371
P       -3.2991598632    0.3799376099    4.5747184960
O       -4.2439746207   -0.8002716958    5.2037011319
C       -4.4329057212   -0.7978961027    6.6261511703
O       -3.4161868995    1.6683391293    5.3123981985
O       -3.3893712382    0.2426129836    3.0728780719
H       -0.7864149200   -1.4100165381    0.9901164576
H       -2.0798034775   -0.3730487694    1.7331071540
H       -1.0247825232    0.2722268915    0.4349812333
H        0.0305324579    1.7127701751    3.7082237521
H       -0.2765000814    2.1728179506    2.0015569014
H       -1.5874535531    1.4598080309    2.9867749173
H        1.9715068831    0.5707652197    2.4537077522
H        1.5865088728   -0.7863368399    1.3570992868
H        1.2221736632    0.8892086262    0.8669952340
H        0.4708862509   -1.8073948528    3.0499341726
H        0.7328923659   -0.4634959798    4.1848682542
H       -2.0044633195   -1.6929992956    3.5398761649
H       -0.9536196366   -2.1003613241    4.9026268728
H       -5.1536003768   -1.5888503287    6.8484444133
H       -4.8181366572    0.1686564219    6.9621520725
H       -3.4888741579   -1.0069214758    7.1441576710
28   
torsion grid (90,)
C       -1.2520799553   -0.0150718918    1.7276933648
N       -0.1158852940    0.3640838667    2.6475056228
C       -0.3579367626    1.7605977391    3.1892480089
C        1.1684568559    0.3774793021    1.8714576331
C        0.0533660756   -0.6700348589    3.7634096841
C       -1.1552958640   -0.9774547114    4.6438525000
O       -1.4779323896    0.1057219162    5.4791023775
P       -2.9568004242    0.9174073840    5.2158667713
O       -3.9573999865    0.0643347714    6.1841596053
C       -3.8685765556    0.3019632340    7.5963020611
O       -2.7132203221    2.2999734496    5.7223702600
O       -3.3361286028    0.6014046820    3.7900629929
H       -1.0785057785   -1.0313734298    1.3680470038
H       -2.1904818630    0.0705091714    2.2871946869
H       -1.2478135046    0.6817426230    0.8874714969
H        0.3098891964    1.9348472201    4.0314789203
H       -0.1525850011    2.4646036489    2.3811312851
H       -1.3905445180    1.8540691552    3.5103992345
H        1.9834799915    0.6707667858    2.5347546232
H        1.3575326267   -0.6176378649    1.4668335486
H        1.0822692437    1.0954779410    1.0554999510
H        0.3757121546   -1.5885816045    3.2634178921
H        0.8722939666   -0.3008605375    4.3852379910
H       -2.0103060155   -1.3021295396    4.0441963952
H       -0.8379946110   -1.8290256674    5.2633470272
H       -4.6746856091   -0.2708247876    8.0614339337
H       -3.9864374042    1.3664894419    7.8165167031
H       -2.9032812284   -0.0423958195    7.9866856164
28   
torsion grid (105,)
C       -1.0533710349   -0.0017921576    1.5585990787
N        0.0413853905    0.3231134923    2.5476604347
C       -0.2014813136    1.6919415261    3.1537617178
C        1.3535446550    0.3700138002    1.8197938417
C        0.1626710415   -0.7630037964    3.6207420815
C       -1.1195130413   -1.1929664697    4.3322090465
O       -1.6627549257   -0.1390328424    5.0844772147
P       -3.1732006899    0.5233147103    4.6274671023
O       -4.1500777232   -0.1078619437    5.7657606050
C       -4.0685449705    0.4335228230    7.0920227571
O       -2.9696211198    1.9975333067    4.8079864053
O       -3.5233229351   -0.1113366644    3.3093867595
H       -0.8553027657   -0.9933048612    1.1459509351
H       -2.0285298169    0.0208580274    2.0621656941
H       -1.0130756717    0.7443318224    0.7630015510
H        0.6079703403    1.8985215824    3.8551393920
H       -0.1829109889    2.4154994226    2.3368848918
H       -1.1579722295    1.7413407804    3.6748534753
H        2.1543238140    0.5597313158    2.5359485785
H        1.5220469428   -0.5833261646    1.3175758805
H        1.3211921196    1.1734094571    1.0831789074
H        0.6011061926   -1.6309001371    3.1185916542
H        0.8808598595   -0.3761447358    4.3474768413
H       -1.8496412056   -1.5998776425    3.6263987713
H       -0.8105910785   -2.0062645770    5.0051202971
H       -4.8786400818   -0.0229471169    7.6658438590
H       -4.1858127036    1.5205541207    7.0737286996
H       -3.1065906880    0.1798117615    7.5531160510
28   
torsion grid (120,)
C       -1.0985466957    0.0212172559    1.5656104287
N        0.0079015254    0.3099880837    2.5523227244
C       -0.2450170215    1.6371339706    3.2401571051
C        1.3051906932    0.4166139703    1.8046835085
C        0.1641550063   -0.8259887813    3.5678224452
C       -1.1043124807   -1.3757693798    4.2202139283
O       -1.7490683735   -0.4330101199    5.0364507026
P       -3.2478080572    0.2230421186    4.5297618919
O       -4.2039187368   -0.2414969757    5.7581404367
C       -4.0819782072    0.4516432039    7.0083751752
O       -3.0179459776    1.7090532337    4.5507540661
O       -3.6348649047   -0.5244428475    3.2858061337
H       -0.8799459344   -0.9306105432    1.0771975889
H       -2.0653140589   -0.0340380120    2.0777080871
H       -1.1020382349    0.8245479189    0.8271164272
H        0.5730486169    1.8119330938    3.9406491649
H       -0.2451190905    2.4084153870    2.4675931485
H       -1.2066458427    1.6394796891    3.7639797108
H        2.1156697743    0.5791196225    2.5166039481
H        1.4788678747   -0.5048259194    1.2475232598
H        1.2477621405    1.2592353345    1.1148779569
H        0.6572952976   -1.6421055063    3.0308118084
H        0.8471229922   -0.4439531221    4.3299860869
H       -1.7900584327   -1.7876428332    3.4735045143
H       -0.7518682077   -2.2102138023    4.8440478589
H       -4.9045612346    0.1047604040    7.6382558571
H       -4.1508960918    1.5326101536    6.8591981892
H       -3.1271254006    0.2097014667    7.4898506547
28   
torsion grid (135,)
C       -1.2732437131    0.4457554565    2.4795068200
N       -0.2634775078   -0.6844673540    2.5336353228
C        1.0137279262   -0.1976845170    1.9132967068
C       -0.7668669694   -1.8658673749    1.7392954865
C        0.0543929213   -1.0724751424    3.9809389896
C       -0.9480054903   -1.9621787790    4.7160377926
O       -2.1986388211   -1.3540805441    4.9107371331
P       -3.5397395280   -1.9281077932    4.0083454961
O       -4.6420951826   -1.9935801382    5.1974463098
C       -4.5061543222   -3.0299459322    6.1775092746
O       -3.9139505409   -0.8149883472    3.0769250222
O       -3.1333927597   -3.2903681817    3.5106639161
H       -2.2492842757    0.1036402281    2.8418158254
H       -0.8856237083    1.2686359007    3.0819379840
H       -1.3604372226    0.7547322991    1.4361043803
H        1.7380358739   -1.0128678642    1.8864933063
H        0.8064608225    0.1453006890    0.8991510212
H        1.4058088507    0.6289482374    2.5074486976
H       -0.0120352000   -2.6532743968    1.7812243107
H       -1.7095570403   -2.2348145974    2.1458210513
H       -0.9074307780   -1.5375220443    0.7085667210
H        1.0140176366   -1.5974924924    3.9488061397
H        0.1895945579   -0.1280935037    4.5125787277
H       -1.0564274880   -2.9338132841    4.2233907087
H       -0.4815956190   -2.1401384261    5.6963790205
H       -5.3913359695   -2.9764225070    6.8154596765
H       -3.6095915753   -2.8659514897    6.7879424955
H       -4.4479351904   -4.0120653932    5.6990027383
28   
torsion grid (150,)
C       -0.7826270848    0.5210267264    2.3815304608
N       -0.1590066241   -0.8568561704    2.4913814537
C        1.2357297517   -0.7924444950    1.9422115094
C       -0.9636068652   -1.8390871031    1.6724986513
C       -0.0455070651   -1.2972495548    3.9541644966
C       -1.3127637820   -1.8019079646    4.6400321724
O       -2.3117479892   -0.8167298178    4.7156592044
P       -3.7645873484   -1.1321702711    3.8541988385
O       -4.7814706773   -0.3173218533    4.8211516882
C       -5.1197413500   -0.9118016977    6.0819855710
O       -3.6290962670   -0.3739242573    2.5610391840
O       -3.9660494701   -2.6171601276    3.8989383374
H       -1.8310884383    0.4678444478    2.6846684926
H       -0.2043071843    1.2029610642    3.0064532021
H       -0.7209724048    0.8244585496    1.3347211932
H        1.6656620473   -1.7950369453    1.9300503518
H        1.1997005718   -0.3939168971    0.9279354014
H        1.8381068094   -0.1371669193    2.5731225688
H       -0.6013578427   -2.8467517741    1.8806610483
H       -2.0213580096   -1.7302670080    1.9156229320
H       -0.8106324869   -1.5962768973    0.6198117715
H        0.7000269180   -2.0982412152    3.9714128778
H        0.3573273677   -0.4324687243    4.4860301405
H       -1.6912066046   -2.7171478454    4.1727242381
H       -0.9869168785   -2.0761087036    5.6546679022
H       -5.8952576334   -0.2831269892    6.5257401791
H       -4.2450051600   -0.9325581934    6.7427975784
H       -5.4949045001   -1.9294810873    5.9417627556
28   
torsion grid (165,)
C       -0.9231001615    0.5030824497    2.4613054593
N       -0.1734760144   -0.8151227607    2.4771073931
C        1.2106661434   -0.5839912697    1.9470708003
C       -0.8870479258   -1.8045697366    1.5854713610
C       -0.0226651591   -1.3549079464    3.9014282524
C       -1.2603841072   -1.9494655406    4.5660993548
O       -2.2671385201   -0.9886482737    4.7657461148
P       -3.7639978755   -1.3438977751    4.0026228693
O       -4.6666094202   -0.2678089323    4.8181488765
C       -5.0547409939   -0.6072183526    6.1579257057
O       -3.6068015388   -0.8448812342    2.5872800112
O       -4.0941543279   -2.7652760485    4.3291422308
H       -1.9692092610    0.3184145136    2.7136350084
H       -0.4420758365    1.1763490332    3.1716643665
H       -0.8509208563    0.9060673086    1.4492789084
H        1.7369306549   -1.5374722244    1.8830902737
H        1.1406583748   -0.1346348255    0.9561369151
H        1.7431433902    0.0903234891    2.6195167723
H       -0.4217654061   -2.7837114489    1.7117561121
H       -1.9493989736   -1.8117769978    1.8477769721
H       -0.7698653748   -1.4669126786    0.5543385594
H        0.7518493415   -2.1263522010    3.8488993467
H        0.3556873365   -0.5177969859    4.4924902177
H       -1.6290675960   -2.8246108751    4.0202301094
H       -0.9049027699   -2.3234628977    5.5377595902
H       -5.7602257854    0.1613932060    6.4824242042
H       -4.1822916601   -0.6068571038    6.8216334954
H       -5.5306290444   -1.5912447698    6.1845635650
28   
torsion grid (180,)
C       -1.1146524162    0.3882928860    2.5779371444
N       -0.2571193887   -0.8613137229    2.5147560053
C        1.1108687784   -0.4786865400    2.0329139619
C       -0.8751473124   -1.8358586749    1.5394913329
C       -0.0824166403   -1.4987028761    3.8943321164
C       -1.3025172570   -2.1646491025    4.5213364594
O       -2.3025198524   -1.2263554664    4.8306127445
P       -3.8269937806   -1.5655990659    4.1209508756
O       -4.6074722023   -0.2757384400    4.7344649235
C       -5.0585441889   -0.3547754417    6.0952952604
O       -3.6211001531   -1.3148209607    2.6451115836
O       -4.3089105393   -2.8664501167    4.6715974366
H       -2.1511472207    0.0925538353    2.7470856655
H       -0.7400608820    1.0221488042    3.3818097904
H       -1.0183423966    0.8964224979    1.6164637614
H        1.7241376663   -1.3755834226    1.9350271857
H        1.0209215727    0.0130191987    1.0639653778
H        1.5646278079    0.2056413790    2.7513942467
H       -0.3084975815   -2.7682271089    1.5771027180
H       -1.9276995226   -1.9752099126    1.8092660325
H       -0.8047269315   -1.3980795313    0.5421892258
H        0.7112848585   -2.2434014117    3.7796370810
H        0.2776778172   -0.6987776036    4.5454467841
H       -1.6726524880   -2.9811244047    3.8915577323
H       -0.9306528099   -2.6333224839    5.4442539007
H       -5.6884666016    0.5215772566    6.2667104059
H       -4.2062192108   -0.3336064320    6.7843120498
H       -5.6333075682   -1.2701949920    6.2588273138
