19   
torsion grid (-165,)
C        1.9606531996   -0.9645235649   -0.1162824661
C        0.8444816767   -0.3401084594    0.4543835233
C        2.8786460087   -1.6568920980    0.6721496161
C        1.5738048635   -1.1358554972    2.6498999064
C        0.6861018636   -0.4446126409    1.8303605148
C        2.6922637049   -1.7478864759    2.0642773905
C        4.7445544904   -2.6548877281    5.5842579397
C        3.5577384697   -2.2264985290    4.7198702998
F       -0.3905342814    0.1471036654    2.4138838606
S        3.8985252537   -2.6795035394    2.9764708302
H        2.1188589228   -0.9014230572   -1.1894735082
H        0.1212582784    0.2096647721   -0.1390049331
H        3.7464858123   -2.1222534228    0.2127359622
H        1.3669567944   -1.1880506056    3.7124158800
H        4.9217693940   -3.7329286923    5.5163841829
H        5.6592358392   -2.1377304866    5.2811704173
H        4.5442379138   -2.4137300949    6.6332768273
H        3.4195075086   -1.1429876438    4.7758364915
H        2.6371854528   -2.7145495293    5.0530497729
19   
torsion grid (-150,)
C        2.0467896384   -0.9141399379   -0.0604413868
C        0.9345297628   -0.2618408101    0.4841020714
C        2.8754090810   -1.7072628306    0.7343396018
C        1.4718520891   -1.2432658360    2.6584444160
C        0.6809536042   -0.4449053296    1.8385107037
C        2.5936518582   -1.8767323451    2.1015044719
C        4.8122621216   -2.5580725257    5.5079791898
C        3.5067191548   -2.3120929207    4.7505402310
F       -0.3978778008    0.1701861307    2.3925706986
S        3.6669648360   -2.9472122558    3.0311043023
H        2.2773482996   -0.7892877607   -1.1149557353
H        0.2834194524    0.3687151820   -0.1125791493
H        3.7491420397   -2.1861392459    0.3014735829
H        1.1908447235   -1.3668054984    3.6984858258
H        5.0682397157   -3.6222320182    5.5340822480
H        5.6415814329   -2.0191450913    5.0420222237
H        4.7114106185   -2.2142186753    6.5431111067
H        3.2996996755   -1.2403208482    4.6946572733
H        2.6648177173   -2.8031346312    5.2464283168
19   
torsion grid (-135,)
C        2.1397554646   -0.8793970535   -0.0041681562
C        1.0305819868   -0.1928396059    0.5011690473
C        2.8757121073   -1.7489742993    0.8038684050
C        1.3717955509   -1.2973637869    2.6546104119
C        0.6791259779   -0.4201200558    1.8277096224
C        2.4961581548   -1.9620032816    2.1396699689
C        4.8478238010   -2.4591771008    5.3856156141
C        3.4442032651   -2.3914765134    4.7831346998
F       -0.4016257034    0.2271061145    2.3393351477
S        3.4356281322   -3.1363522707    3.0935098407
H        2.4438192639   -0.7202060169   -1.0351540054
H        0.4524913345    0.4974952885   -0.1046168178
H        3.7526535249   -2.2524933763    0.4077138929
H        1.0171251928   -1.4605521792    3.6668552951
H        5.2117893581   -3.4901251379    5.4415818699
H        5.5564838469   -1.8810061422    4.7866016054
H        4.8371656710   -2.0533590420    6.4037113759
H        3.1225597647   -1.3519949952    4.6880256422
H        2.7190809095   -2.9189434028    5.4083550803
19   
torsion grid (-120,)
C        1.8114085040   -1.4713150220   -0.0923240259
C        1.0938570202   -0.3898377023    0.4274702643
C        2.7353770009   -2.1653469908    0.6942783341
C        2.2741150603   -0.6682690712    2.5467863200
C        1.3432000280   -0.0184397142    1.7455795158
C        2.9709337403   -1.7673489287    2.0194098713
C        4.2271891320   -2.1621770693    5.7255587780
C        3.4263478584   -2.8346151627    4.6120186996
F        0.6656294735    1.0379228653    2.2686076010
S        4.2200829291   -2.6329108234    2.9539286265
H        1.6350360157   -1.7880836303   -1.1166545709
H        0.3623039696    0.1545241321   -0.1610264280
H        3.2645678980   -3.0228674320    0.2898518073
H        2.4549456605   -0.3018843030    3.5523063470
H        5.2491864665   -2.5510474051    5.7669735626
H        4.2880134915   -1.0803496592    5.5727658707
H        3.7549389016   -2.3500950739    6.6970163572
H        2.4108453027   -2.4396967224    4.5483086075
H        3.3469660033   -3.9109415224    4.7899196799
19   
torsion grid (-105,)
C        1.8738288301   -1.3772717026   -0.0994547189
C        1.1728617103   -0.3093233338    0.4713028537
C        2.7234733902   -2.1736515067    0.6706620536
C        2.2203927293   -0.8212681429    2.6200493590
C        1.3656444873   -0.0641904169    1.8264151643
C        2.9020887541   -1.9012260752    2.0379266842
C        4.2090333930   -2.0175877307    5.6021106774
C        3.3975202602   -2.9000047829    4.6535352378
F        0.7047845307    0.9732893138    2.4059335672
S        4.0531200587   -2.9239556532    2.9323346814
H        1.7423353206   -1.6009192086   -1.1546416957
H        0.4981203914    0.3149308626   -0.1054255283
H        3.2383653465   -3.0165865465    0.2188678665
H        2.3492003953   -0.5448735809    3.6608386783
H        5.2570861609   -2.3298608229    5.6244734099
H        4.1824446800   -0.9677839004    5.2947313029
H        3.8101684135   -2.0887532522    6.6210769305
H        2.3455919612   -2.6092937290    4.6137807576
H        3.4286029095   -3.9416504578    4.9860520593
19   
torsion grid (-90,)
C        2.0185760727   -1.3041395946   -0.0994420313
C        1.2956319582   -0.2564105411    0.4843291470
C        2.7581372837   -2.1909182749    0.6818115771
C        2.0851270944   -0.9936225164    2.6793184024
C        1.3509441684   -0.1346014129    1.8667091698
C        2.7962002476   -2.0442578533    2.0812778913
C        4.2286387467   -1.8958536870    5.4281301774
C        3.3504852110   -2.9350373152    4.7288570604
F        0.6650728404    0.8756940901    2.4655779887
S        3.7876416056   -3.2216635892    2.9721227042
H        1.9970545496   -1.4334833732   -1.1781209241
H        0.7096436150    0.4423141001   -0.1036544050
H        3.3009498105   -3.0058153984    0.2105853901
H        2.0888391338   -0.8139727034    3.7478285672
H        5.2801109508   -2.1942206185    5.3943015774
H        4.1470897794   -0.9130527743    4.9550595692
H        3.9332529775   -1.7957998375    6.4793580216
H        2.2858885944   -2.6964437665    4.7924078502
H        3.4795905194   -3.9147375198    5.1984252548
19   
torsion grid (-75,)
C        2.1781505107   -1.2214544016   -0.0425767594
C        1.4173653596   -0.1959610258    0.5322493983
C        2.7975140093   -2.1871323584    0.7495185014
C        1.9000810775   -1.1349708465    2.7402618430
C        1.3032403040   -0.1851822300    1.9164291667
C        2.6605710538   -2.1547012145    2.1500719364
C        4.2675254013   -1.8264197565    5.2075055945
C        3.3156833330   -2.9529105182    4.8027192123
F        0.5718605627    0.7978002068    2.5066856798
S        3.4589611441   -3.4638535818    3.0513100174
H        2.2926069094   -1.2626232457   -1.1223582653
H        0.9317317087    0.5701879721   -0.0631887936
H        3.3906024019   -2.9700931191    0.2846643800
H        1.7520610102   -1.0553627245    3.8107015298
H        5.3064212068   -2.1193865229    5.0330459922
H        4.0766044217   -0.9127178892    4.6381687727
H        4.1475045999   -1.5950655658    6.2724698558
H        2.2719960857   -2.7164995768    5.0272306619
H        3.5506410304   -3.8687062124    5.3536189024
19   
torsion grid (-60,)
C        2.3524301386   -1.1442676721    0.0713445844
C        1.5380380914   -0.1417371888    0.6084486888
C        2.8412790231   -2.1783366262    0.8725721174
C        1.6732743096   -1.2482844031    2.7838366493
C        1.2239375695   -0.2219171004    1.9610796148
C        2.5015931147   -2.2386927955    2.2344483215
C        4.2890280579   -1.7865375782    4.9553975045
C        3.3026821608   -2.9494695098    4.8608734475
F        0.4318306287    0.7385043100    2.5078317176
S        3.0956065813   -3.6338266857    3.1696326613
H        2.6213503445   -1.1093514331   -0.9808734917
H        1.1585361205    0.6790918555    0.0085341807
H        3.4941258499   -2.9353994294    0.4477572635
H        1.3649416195   -1.2603620355    3.8237025931
H        5.2776958521   -2.0856219316    4.5958351983
H        3.9578742657   -0.9303637331    4.3621983457
H        4.3832240658   -1.4592614441    5.9973894448
H        2.3237357223   -2.6808103786    5.2684422889
H        3.6565542729   -3.8105019140    5.4361623960
19   
torsion grid (-45,)
C        2.5599411757   -1.0776979607    0.2411968532
C        1.6686998427   -0.0973300579    0.6856794058
C        2.8977674346   -2.1621920452    1.0578972952
C        1.4117903287   -1.3224450500    2.7825327468
C        1.1183715349   -0.2446816815    1.9565524368
C        2.3247241709   -2.2886655398    2.3309938290
C        4.3081009068   -1.7829315520    4.6891822211
C        3.3386124728   -2.9449988108    4.8882649539
F        0.2454026214    0.6965374980    2.4032423851
S        2.7249879446   -3.7176381656    3.3263158143
H        3.0069673497   -0.9876422711   -0.7450547660
H        1.4011649989    0.7591898475    0.0749489703
H        3.6117468014   -2.9054453774    0.7169925988
H        0.9311392697   -1.4021191693    3.7526011836
H        5.1761723912   -2.0905739513    4.0982367554
H        3.8293494695   -0.9446413319    4.1776054152
H        4.6620142835   -1.4260721823    5.6632671046
H        2.4810394981   -2.6347025363    5.4928519184
H        3.8201004980   -3.7777658886    5.4095945080
19   
torsion grid (-30,)
C        2.6797658796   -1.0470634966    0.3773865416
C        1.7446131685   -0.0673177399    0.7226954641
C        2.9079226231   -2.1443017747    1.2149546342
C        1.2332042521   -1.3107037040    2.7590426951
C        1.0416937704   -0.2234128697    1.9144386822
C        2.1879911567   -2.2781444320    2.4100193314
C        4.2769725206   -1.7701317955    4.5425239167
C        3.4049779718   -2.9746936080    4.8835943532
F        0.1255250077    0.7182190930    2.2615573956
S        2.4611409463   -3.7030210041    3.4591107902
H        3.2404293628   -0.9493734925   -0.5482238901
H        1.5552975123    0.7957471944    0.0920249065
H        3.6457641779   -2.8951657898    0.9510639320
H        0.6466603701   -1.3999669962    3.6678618025
H        4.9976157521   -2.0077778849    3.7540755206
H        3.6779208680   -0.9201779989    4.2078914687
H        4.8336119272   -1.4609239598    5.4346252536
H        2.6918305016   -2.7150078551    5.6713200496
H        4.0126417863   -3.8085126251    5.2464603516
19   
torsion grid (-15,)
C        2.4553852446   -1.6925209974    0.3743261013
C        1.0820603567   -1.5440995114    0.5936500429
C        3.3798801500   -1.2655023592    1.3323712623
C        1.5619030377   -0.5258944691    2.7588329655
C        0.6668782686   -0.9589441314    1.7858827713
C        2.9359034192   -0.6890322570    2.5319989948
C        3.4213152717   -2.7673823339    4.6298650017
C        4.4204494991   -1.6273430966    4.7974272594
F       -0.6643465055   -0.8047983470    2.0107292384
S        4.1119306024   -0.1119657473    3.7542884953
H        2.8045627100   -2.1411332226   -0.5517015592
H        0.3452941114   -1.8651740888   -0.1361620435
H        4.4453869179   -1.3758055355    1.1568739219
H        1.1941001476   -0.0722619604    3.6731358843
H        2.4041693628   -2.4564877795    4.8844920633
H        3.4108459611   -3.1496099306    3.6061861165
H        3.7024559383   -3.5906852257    5.2964529679
H        5.4299500985   -1.9770418503    4.5648857179
H        4.4198502008   -1.2607952109    5.8273556224
19   
torsion grid (0,)
C        2.4128396702   -1.7060967428    0.3651163856
C        1.0491642690   -1.5273371741    0.6172723221
C        3.3704931076   -1.2990314426    1.2994755784
C        1.6063772102   -0.5079739791    2.7640411298
C        0.6781116026   -0.9283759246    1.8174948509
C        2.9708631489   -0.7051965266    2.5057520341
C        3.4848575905   -2.7996293951    4.5642968632
C        4.3613457882   -1.5877443471    4.8626245943
F       -0.6433423188   -0.7436593041    2.0749157228
S        4.1970533570   -0.1461215747    3.6861376221
H        2.7291100620   -2.1666263251   -0.5668475236
H        0.2873013816   -1.8352844160   -0.0921823890
H        4.4282724994   -1.4390923610    1.1008072985
H        1.2711929113   -0.0356460041    3.6815465071
H        2.4206465585   -2.5564165440    4.6189150228
H        3.6856501701   -3.2109562333    3.5714969320
H        3.6924404865   -3.5806230527    5.3046333022
H        5.4171257122   -1.8701939451    4.8407795875
H        4.1378763646   -1.1921212968    5.8567496921
19   
torsion grid (15,)
C        2.3583218169   -1.7495022052    0.3957795122
C        1.0056845823   -1.5049323960    0.6516345779
C        3.3398845809   -1.3554624647    1.3107520490
C        1.6215038893   -0.4433844162    2.7609042335
C        0.6686506305   -0.8536459717    1.8346935515
C        2.9743086093   -0.7073903580    2.4993627138
C        3.6083320397   -2.8574320413    4.4824561966
C        4.2885415015   -1.5581003581    4.9011374428
F       -0.6418535764   -0.6051334972    2.0942814580
S        4.2336401669   -0.1709377892    3.6550515568
H        2.6472617629   -2.2520944523   -0.5232327515
H        0.2260357691   -1.8023052454   -0.0428162366
H        4.3891156366   -1.5475012476    1.1104815704
H        1.3138620717    0.0707217624    3.6656461069
H        2.5370224412   -2.7196183598    4.3176161402
H        4.0413025421   -3.2637652373    3.5639798573
H        3.7356555818   -3.6008402063    5.2776547400
H        5.3534410348   -1.7223980429    5.0859226650
H        3.8410155955   -1.1803052629    5.8243845269
19   
torsion grid (30,)
C        2.3338314289   -1.7202692327    0.3508018571
C        1.0001327037   -1.4618373508    0.6797313679
C        3.3665610981   -1.3704974839    1.2273515221
C        1.7382723039   -0.4625669704    2.7808384061
C        0.7342573789   -0.8375727681    1.8955768854
C        3.0716710449   -0.7441281644    2.4461444564
C        3.7223356316   -2.8901968779    4.4798486391
C        4.2657160866   -1.5292107559    4.9040286356
F       -0.5572667555   -0.5753331725    2.2267949131
S        4.4014470788   -0.2684121036    3.5465050014
H        2.5683337480   -2.2049287401   -0.5929947295
H        0.1817446036   -1.7292724463    0.0185118939
H        4.4000959618   -1.5853950621    0.9753990824
H        1.4833959583    0.0397203986    3.7086066109
H        2.6887661207   -2.8214277861    4.1329266704
H        4.3211740695   -3.3274943537    3.6751264390
H        3.7463917246   -3.5738894463    5.3361805491
H        5.2880248157   -1.6154992573    5.2829618306
H        3.6488642363   -1.1074044275    5.7028080167
19   
torsion grid (45,)
C        2.2807350266   -1.5968781227    0.2170357955
C        0.9617759291   -1.3907832634    0.6305505192
C        3.3506991641   -1.3404051629    1.0810663572
C        1.7907664846   -0.6186126641    2.7936566248
C        0.7503608979   -0.9082894528    1.9197750887
C        3.1096726615   -0.8501261933    2.3720709712
C        3.6806358158   -2.9161634077    4.6411707364
C        4.1295682663   -1.4863955436    4.9312471829
F       -0.5258515294   -0.6967374906    2.3369614332
S        4.4975822228   -0.4714714980    3.4320002609
H        2.4756900310   -1.9750742920   -0.7827658545
H        0.1152905692   -1.5942175994   -0.0177293941
H        4.3713752171   -1.5286344496    0.7629676413
H        1.5696270670   -0.2167551050    3.7775183933
H        2.7324778938   -2.9364774070    4.0987143979
H        4.4257310953   -3.4494828085    4.0430206510
H        3.5416733478   -3.4582212235    5.5836929380
H        5.0738156816   -1.4721889670    5.4838428021
H        3.3871341967   -0.9635979128    5.5417110141
19   
torsion grid (60,)
C        2.2098362151   -1.3863013378    0.0399407103
C        0.9116332764   -1.2689137123    0.5475094049
C        3.3214325352   -1.2777133295    0.8782846071
C        1.8552960365   -0.8904254165    2.7705657942
C        0.7721403816   -1.0269398763    1.9101129321
C        3.1512536790   -1.0253598471    2.2498041229
C        3.6581016441   -2.8924576986    4.9076936826
C        4.1085403168   -1.4325910003    4.8888065756
F       -0.4787304648   -0.9059869995    2.4292449258
S        4.6197572804   -0.8168068298    3.2364626815
H        2.3551523623   -1.5803477148   -1.0192695815
H        0.0328543177   -1.3640519950   -0.0820786439
H        4.3226340383   -1.3972120331    0.4743741974
H        1.6698327470   -0.6749232834    3.8173044300
H        2.7753192780   -3.0482869183    4.2824439457
H        4.4527017757   -3.5486851357    4.5413589833
H        3.4046967219   -3.1926630347    5.9310990499
H        5.0085403378   -1.2931991786    5.4955476258
H        3.3439876991   -0.7701305936    5.3050525323
19   
torsion grid (75,)
C        2.2021694338   -1.1802736371   -0.0560218821
C        0.9115186210   -1.1173023766    0.4835732619
C        3.3250597916   -1.2243397273    0.7690639284
C        1.8946323618   -1.1309010204    2.7238086711
C        0.7979487100   -1.0957913649    1.8676608678
C        3.1809488712   -1.1959599425    2.1689834636
C        3.6766891790   -2.8807415906    5.1617249205
C        4.1255255582   -1.4540837641    4.8424058941
F       -0.4415928857   -1.0354775654    2.4241010730
S        4.6858354453   -1.2120927960    3.1171148045
H        2.3311327096   -1.2009235503   -1.1347521641
H        0.0231595114   -1.0890021708   -0.1388068232
H        4.3178197426   -1.2815328744    0.3308243058
H        1.7154669306   -1.1016866413    3.7920223540
H        2.8250694270   -3.1827646551    4.5461690896
H        4.4894907274   -3.5894470451    4.9808169940
H        3.3796724304   -2.9564976051    6.2144006099
H        5.0067154370   -1.1889138828    5.4344240691
H        3.3580428064   -0.7130048417    5.0818884037
19   
torsion grid (90,)
C        2.1919482553   -0.9982568662   -0.0995830262
C        0.9027263428   -0.9796065211    0.4469588876
C        3.3128802212   -1.1867259039    0.7076302415
C        1.8806512841   -1.3624464797    2.6570971815
C        0.7876838357   -1.1619687944    1.8189771558
C        3.1659250836   -1.3686391821    2.0957415415
C        3.7075621329   -2.8256819020    5.3905329917
C        4.1333701138   -1.4934640523    4.7709364251
F       -0.4507528635   -1.1551846551    2.3810079491
S        4.6637346813   -1.6194681588    3.0210418401
H        2.3222505418   -0.8558316323   -1.1689125532
H        0.0168680227   -0.8297309249   -0.1614245151
H        4.3058824567   -1.1840164980    0.2663455793
H        1.6986927040   -1.5163560444    3.7141187507
H        2.8499211540   -3.2590219746    4.8680159562
H        4.5248875049   -3.5507102834    5.3450121837
H        3.4320912179   -2.6836184210    6.4423290085
H        5.0140396706   -1.1015092765    5.2884011711
H        3.3583739881   -0.7269679488    4.8496686320
19   
torsion grid (105,)
C        2.1762080363   -0.8362736545   -0.0913918526
C        0.8820063213   -0.8469291915    0.4400492538
C        3.2802201629   -1.1661180954    0.6970657946
C        1.8099756694   -1.5677385802    2.5842002785
C        0.7374185070   -1.2111993276    1.7742699810
C        3.1041876295   -1.5336794264    2.0421617742
C        3.7939173848   -2.7524005653    5.5722972611
C        4.1321364097   -1.5486411952    4.6928476913
F       -0.5099773200   -1.2396432329    2.3147112214
S        4.5568336599   -2.0028793444    2.9589280906
H        2.3265297865   -0.5507836507   -1.1289969645
H        0.0110169477   -0.5824081844   -0.1507159196
H        4.2812751974   -1.1252793840    0.2775517814
H        1.6144263913   -1.8783693634    3.6047654072
H        2.9030938087   -3.2755334326    5.2116498034
H        4.6184776921   -3.4710205547    5.5833364703
H        3.6097815279   -2.4287675231    6.6037027659
H        5.0172295194   -1.0347790498    5.0790923120
H        3.3240397489   -0.8146121804    4.6647735314
19   
torsion grid (120,)
C        2.2209718679   -0.7358368914   -0.0788008013
C        0.9089639629   -0.7362883054    0.4041674823
C        3.2786410865   -1.1823006922    0.7187756014
C        1.7141564282   -1.6875739777    2.5039565348
C        0.6904376049   -1.2106340807    1.6944986844
C        3.0300271361   -1.6600648995    2.0147733299
C        3.9213918561   -2.6985272144    5.7003577317
C        4.0911494021   -1.6056814204    4.6467284599
F       -0.5795540340   -1.2305533117    2.1795527110
S        4.4029371957   -2.2959400383    2.9598255271
H        2.4233411642   -0.3664809121   -1.0804795661
H        0.0743647420   -0.3818104072   -0.1921509167
H        4.2978822050   -1.1490369011    0.3459809871
H        1.4732094617   -2.0854992819    3.4846017801
H        3.0488609584   -3.3234446272    5.4867948449
H        4.7983922897   -3.3519419701    5.7367908191
H        3.7930914130   -2.2497660538    6.6923861954
H        4.9489489510   -0.9703563621    4.8852082785
H        3.2133722835   -0.9595103720    4.5879345340
19   
torsion grid (135,)
C        1.8882274704   -1.3369801702   -0.0195493668
C        0.6999067193   -0.7943929236    0.4809371428
C        2.9936931278   -1.5342297040    0.8109669206
C        1.7539049051   -0.6020336820    2.6777146925
C        0.6657173788   -0.4444241149    1.8267592127
C        2.9321580481   -1.1686617363    2.1660998223
C        4.5214613266   -3.0527377897    5.3658095776
C        3.7284657325   -1.8741069618    4.8003885813
F       -0.4743435940    0.0949009536    2.3347706927
S        4.3997627461   -1.3820966745    3.1520488482
H        1.9461227540   -1.6257252381   -1.0654951319
H       -0.1753935055   -0.6448323604   -0.1429290823
H        3.8999614134   -1.9843968788    0.4166031805
H        1.6727608683   -0.2674962919    3.7065779634
H        4.4307351597   -3.9289544765    4.7182664154
H        5.5847238416   -2.8114068104    5.4642395260
H        4.1447642246   -3.3128540970    6.3616806746
H        3.7668553356   -1.0124589153    5.4719644949
H        2.6818074724   -2.1536937642    4.6612551046
19   
torsion grid (150,)
C        1.8692453929   -1.2372707517   -0.0712551745
C        0.7071080912   -0.6756814545    0.4702257728
C        2.9603252219   -1.5527582297    0.7395147058
C        1.7619151516   -0.7152708968    2.6759607684
C        0.6873250446   -0.4331082126    1.8388038311
C        2.9136519714   -1.2943464658    2.1209220287
C        4.5823898238   -2.9761745400    5.4939305180
C        3.6958576688   -1.9677239905    4.7619841197
F       -0.4257826243    0.1196958625    2.3907108892
S        4.3661230283   -1.6748065495    3.0736418574
H        1.9172835842   -1.4446071298   -1.1368307690
H       -0.1572119331   -0.4331221443   -0.1394366821
H        3.8451084976   -2.0115904162    0.3073878637
H        1.6861377512   -0.4653334158    3.7284357746
H        4.5860373877   -3.9399307858    4.9777004079
H        5.6164925610   -2.6242286922    5.5674554346
H        4.2090221734   -3.1281879762    6.5124556331
H        3.6442833544   -1.0205225638    5.3060278555
H        2.6824198238   -2.3634212875    4.6569270457
19   
torsion grid (165,)
C        1.8671190288   -1.1346647008   -0.1220328610
C        0.7256365793   -0.5562878106    0.4470834891
C        2.9213225950   -1.5791939726    0.6746845545
C        1.7261883070   -0.8585061355    2.6590879349
C        0.6900574756   -0.4373287147    1.8305216436
C        2.8588719402   -1.4446698103    2.0743432474
C        4.6255597453   -2.8711757797    5.5770127203
C        3.6519816837   -2.0548567628    4.7255535391
F       -0.4029968377    0.1245274207    2.4130371010
S        4.2660128337   -2.0107781345    2.9987602810
H        1.9289939644   -1.2468511812   -1.2010767967
H       -0.1093082980   -0.2097974954   -0.1531036224
H        3.7923046234   -2.0388467377    0.2154701809
H        1.6293261346   -0.7105682115    3.7282851165
H        4.6884955804   -3.9036992694    5.2222005039
H        5.6318584801   -2.4407812888    5.5595098016
H        4.2851355337   -2.8848827162    6.6175162433
H        3.5605038244   -1.0344851044    5.1090848851
H        2.6623111355   -2.5204409908    4.7297889079
19   
torsion grid (180,)
C        1.8954318404   -1.0378972159   -0.1340585984
C        0.7696882315   -0.4391212608    0.4461537558
C        2.8905503622   -1.6127431175    0.6541954833
C        1.6586735047   -1.0056111488    2.6544525687
C        0.6865966779   -0.4421127039    1.8321601478
C        2.7798807794   -1.6012016908    2.0578828541
C        4.6763253772   -2.7635146831    5.6110561311
C        3.6042655777   -2.1428200445    4.7139621176
F       -0.3941115022    0.1312767857    2.4265580201
S        4.1029227294   -2.3607069260    2.9662517898
H        1.9950211045   -1.0546573317   -1.2159782820
H       -0.0168339829    0.0143420910   -0.1480684476
H        3.7562786654   -2.0722691710    0.1847042271
H        1.5158719627   -0.9653269907    3.7276661543
H        4.7861418742   -3.8345372499    5.4163673775
H        5.6485818233   -2.2854869440    5.4582166052
H        4.3974424509   -2.6364708257    6.6619377783
H        3.4968643177   -1.0749820159    4.9261936600
H        2.6389142586   -2.6316775931    4.8753090295
