13   
torsion grid (-165,)
C        2.0504052485    0.5991677762    1.1598102512
C       -1.5083064778   -0.6373570157   -1.5875541851
N        0.2631619380   -0.1611336696   -0.2065446956
N        0.6638442109    0.1887710779    1.0139975980
N       -1.0267422862   -0.2036636819   -0.2883649743
O       -1.8272185829    0.0960579812    0.6602163172
Br      -2.5274350542   -2.3033111224   -1.4169156412
Br      -2.5645935382    0.7846109033   -2.4274198605
H        2.2319467416    1.6055294148    0.7612983810
H        2.3029245472    0.5827687249    2.2221135055
H        2.6909453626   -0.1126131834    0.6353554036
H       -0.6530316996   -0.8354480453   -2.2220586417
H       -0.0724369041    0.5716852082    1.6115426957
13   
torsion grid (-150,)
C        2.0230486416    0.6264518077    1.1413776099
C       -1.4970383672   -0.6305179130   -1.5828607389
N        0.2774272470   -0.2903140930   -0.1649882763
N        0.6913886185    0.0326529414    1.0697423513
N       -1.0071947660   -0.2091928120   -0.2768903937
O       -1.8059941194    0.1553043474    0.6464781257
Br      -2.6278895652   -2.2203886238   -1.4084787375
Br      -2.4353136245    0.8509574377   -2.4514447927
H        2.0472704882    1.6412229176    0.7247438707
H        2.3267582961    0.6574997142    2.1898383531
H        2.7255303785   -0.0020183714    0.5902767487
H       -0.6451417459   -0.8944996325   -2.1976495319
H       -0.0493879758    0.4579066479    1.6353315654
13   
torsion grid (-135,)
C        1.9811289400    0.6603505151    1.1173632243
C       -1.4819212841   -0.6251445157   -1.5744776292
N        0.2943296464   -0.4219474569   -0.1315534217
N        0.7346230295   -0.1120090857    1.1093725779
N       -0.9741941058   -0.2163787124   -0.2648068271
O       -1.7592095963    0.2199997194    0.6345778686
Br      -2.7405740584   -2.1106870343   -1.3856920731
Br      -2.2771331461    0.9148244064   -2.4776582628
H        1.8455032043    1.6648019382    0.6977060740
H        2.3232378929    0.7396136099    2.1514147363
H        2.7381130777    0.1297704930    0.5359297402
H       -0.6447912483   -0.9695868480   -2.1694389158
H       -0.0156488462    0.3014573392    1.6727390622
13   
torsion grid (-120,)
C        1.9231207893    0.6945639968    1.0901934486
C       -1.4626583139   -0.6192947175   -1.5631650844
N        0.3136069387   -0.5496774315   -0.1056675688
N        0.7913781077   -0.2469579880    1.1380899396
N       -0.9281597855   -0.2230333320   -0.2526415802
O       -1.6847962516    0.2941571262    0.6220951332
Br      -2.8475098175   -1.9798334116   -1.3485313398
Br      -2.1043293917    0.9660908990   -2.5040173894
H        1.6298903758    1.6698388692    0.6825932176
H        2.2969412354    0.8201967599    2.1087006992
H        2.7190878113    0.2729626651    0.4724562577
H       -0.6528582190   -1.0502657448   -2.1392504196
H        0.0297500267    0.1263166774    1.7146208402
13   
torsion grid (-105,)
C        1.8478717458    0.7274359307    1.0616016276
C       -1.4409429829   -0.6128896890   -1.5495357783
N        0.3355692659   -0.6712422074   -0.0888729245
N        0.8609708680   -0.3701058030    1.1538437664
N       -0.8695857274   -0.2301426261   -0.2418321777
O       -1.5790022843    0.3762300259    0.6077455763
Br      -2.9467352329   -1.8256441665   -1.2963838904
Br      -1.9206878155    1.0011536627   -2.5324698202
H        1.4014671354    1.6553585225    0.6833599478
H        2.2497237762    0.8955880223    2.0633722803
H        2.6638535888    0.4252135367    0.4013495965
H       -0.6732150382   -1.1354124007   -2.1071605898
H        0.0941762070   -0.0604784398    1.7604585401
13   
torsion grid (-90,)
C        1.7573418754    0.7614042960    1.0315520365
C       -1.4210368797   -0.6058524760   -1.5320326889
N        0.3607362404   -0.7845893443   -0.0839917176
N        0.9483349005   -0.4769079859    1.1487390640
N       -0.8028008573   -0.2434174923   -0.2313699691
O       -1.4458171705    0.4491223447    0.5973825182
Br      -3.0427200004   -1.6400342882   -1.2334060861
Br      -1.7244490321    1.0209472285   -2.5600976599
H        1.1676269736    1.6188690563    0.6854297539
H        2.1674913137    0.9768769416    2.0209979915
H        2.5842815483    0.5853536154    0.3398721611
H       -0.7138954354   -1.2241307939   -2.0715044117
H        0.1883700294   -0.2625767339    1.8039051621
13   
torsion grid (-75,)
C        1.5213451411    0.8754392687    1.1788701567
C       -1.4354719987   -0.6533593861   -1.5418578516
N        0.2125373287   -0.8215631167    0.0400706909
N        0.7543879686   -0.3913434699    1.2439810867
N       -0.8198958337   -0.1292407911   -0.2996537913
O       -1.2858685888    0.8960522721    0.2508181030
Br      -3.2840432176   -1.1556678439   -1.1843954994
Br      -1.2712609333    0.6678014876   -2.9690859444
H        0.8352186047    1.7097420653    1.0314277292
H        2.0249314726    0.9955625027    2.1407712026
H        2.2670729258    0.8635383229    0.3739360842
H       -0.8931002406   -1.5417333609   -1.8400555215
H        1.3976108770   -1.1401635826    1.4906497088
13   
torsion grid (-60,)
C        1.4597073891    0.8941959569    1.2094504972
C       -1.4310850243   -0.6687654519   -1.5305603220
N        0.1917436671   -0.8800259844    0.0641833441
N        0.8163391608   -0.4400879061    1.2026825014
N       -0.7769422017   -0.1254074184   -0.3237778625
O       -1.1731837283    0.9608656437    0.1763269999
Br      -3.3200290964   -0.9920788510   -1.1646629087
Br      -1.1554793446    0.5470202737   -3.0359063294
H        0.7043349662    1.6756759240    1.2573633092
H        2.0871058157    0.9327565076    2.1027324845
H        2.0859842889    1.0459157634    0.3209711643
H       -0.9670938539   -1.6158358973   -1.7752433949
H        1.5020614673   -1.1591641919    1.4119166709
13   
torsion grid (-45,)
C        1.4179038894    0.9072076592    1.2573466609
C       -1.4374879876   -0.6884160492   -1.5247252537
N        0.1723569177   -0.9069973168    0.0737742617
N        0.8774147174   -0.4655461932    1.1463926898
N       -0.7363673364   -0.1100914028   -0.3664621876
O       -1.0662935413    1.0316058011    0.0682899985
Br      -3.3437032342   -0.8574240964   -1.1328919368
Br      -1.0977206540    0.4019418848   -3.1131581135
H        0.6271085879    1.6161369876    1.4854439626
H        2.1445244074    0.8797701175    2.0729298563
H        1.9262299704    1.2184420685    0.3364796914
H       -1.0430237662   -1.6794062102   -1.7098696546
H        1.5825215354   -1.1721588818    1.3219261789
13   
torsion grid (-30,)
C        1.3943882766    0.9147724932    1.3180514782
C       -1.4590604367   -0.7095153980   -1.5203416627
N        0.1714621396   -0.9069399894    0.0526925196
N        0.9475406694   -0.4698234473    1.0623949522
N       -0.6956886112   -0.0894085148   -0.4284818148
O       -0.9581974849    1.1001311177   -0.0689893465
Br      -3.3615823230   -0.7503290804   -1.0707107300
Br      -1.1145592371    0.2486174042   -3.1924461334
H        0.5652133415    1.5390931528    1.6359359010
H        2.1357832698    0.8409416948    2.1179328612
H        1.8652475625    1.3636095360    0.4364667938
H       -1.1226237386   -1.7305940160   -1.6472248156
H        1.6555400781   -1.1754905846    1.2201961510
13   
torsion grid (-15,)
C        1.3713511693    0.9172034739    1.3763490079
C       -1.4781672983   -0.7262245360   -1.5176629075
N        0.1889305990   -0.8979420153    0.0156689051
N        1.0167816516   -0.4554172014    0.9686136963
N       -0.6479076326   -0.0709884308   -0.5021850132
O       -0.8353332168    1.1578015769   -0.2263765342
Br      -3.3623775190   -0.6621066324   -0.9895458031
Br      -1.1745610692    0.1102585615   -3.2622707182
H        0.5022353082    1.4532374479    1.7456477771
H        2.1028789931    0.8009350870    2.1806454229
H        1.8251320864    1.4867912417    0.5601941182
H       -1.1883828245   -1.7664783948   -1.5935922591
H        1.7028832585   -1.1720058100    1.1599904619
13   
torsion grid (0,)
C        1.3452134562    0.9162494897    1.4126872177
C       -1.4836024646   -0.7318580096   -1.5166335736
N        0.2188608953   -0.8917896855   -0.0227802127
N        1.0929088327   -0.4310684990    0.8710663483
N       -0.5989621803   -0.0601070922   -0.5642137851
O       -0.7074783831    1.1951932628   -0.3690174170
Br      -3.3470506520   -0.5600412828   -0.9354108779
Br      -1.2072230994   -0.0046858722   -3.3148950619
H        0.4747323270    1.3119646806    1.9348143006
H        2.1672386186    0.7927424075    2.1230234922
H        1.6447445090    1.6159997162    0.6332324657
H       -1.2407189497   -1.7864364933   -1.5440422756
H        1.6648005963   -1.1910982540    1.2076455333
13   
torsion grid (15,)
C        1.3134243500    0.9023283622    1.4406286139
C       -1.4852639271   -0.7281570267   -1.5095795201
N        0.2532166681   -0.8815991651   -0.0559550557
N        1.1820760707   -0.4121521684    0.7841513663
N       -0.5431476225   -0.0440164294   -0.6185403431
O       -0.5785194948    1.2242455761   -0.5113120585
Br      -3.3177453327   -0.4465862113   -0.8785011298
Br      -1.2389100269   -0.1103602863   -3.3510696910
H        0.4560596038    1.1326399240    2.0796129398
H        2.2112683335    0.8285511732    2.0602692270
H        1.4368076216    1.6954182105    0.7092561084
H       -1.2857520599   -1.7918652395   -1.4853600543
H        1.6199493223   -1.1933823511    1.2518757509
13   
torsion grid (30,)
C        1.4697892569    0.2163107476    1.5133526728
C       -1.4819923080   -0.4479470310   -1.5983512747
N       -0.0363593578    0.8540018849   -0.4206029856
N        0.7503625268    1.1561537826    0.6294639179
N       -0.6731656324   -0.2618359789   -0.3856728919
O       -0.6936432501   -1.1420043942    0.5297692710
Br      -0.8324008561   -2.0050661786   -2.5913482725
Br      -3.3726718209   -0.6088747135   -1.1262751953
H        2.0817961730   -0.4937996624    0.9463030142
H        2.1252023051    0.8367559094    2.1301259576
H        0.7773346350   -0.3335050714    2.1430883439
H       -1.3677211206    0.4218274662   -2.2326420273
H        1.2769329550    1.9830476075    0.3782656239
13   
torsion grid (45,)
C        1.4949092151    0.1978109914    1.4557155917
C       -1.4561230330   -0.4631232393   -1.5928545414
N       -0.0368383728    0.8646729816   -0.4024058221
N        0.6776471952    1.1787072344    0.7081743982
N       -0.7212155447   -0.2226986254   -0.3399738026
O       -0.8225222749   -1.0402105814    0.6206221281
Br      -0.7877706931   -2.0910941054   -2.4475224482
Br      -3.3745417177   -0.5456414742   -1.2342272202
H        2.1160585137   -0.4077839806    0.7843836719
H        2.1449950249    0.7837648228    2.1098964908
H        0.8638957128   -0.4591418074    2.0474937013
H       -1.2750994606    0.3652707291   -2.2658596646
H        1.2000689409    2.0145314225    0.4720336709
13   
torsion grid (60,)
C        1.5358484984    0.1942408264    1.4054949736
C       -1.4452522459   -0.4811287684   -1.5885161813
N       -0.0114934500    0.8415035694   -0.3983940874
N        0.6201019409    1.1717313543    0.7728796114
N       -0.7667728241   -0.1976141796   -0.3083795121
O       -0.9488513078   -0.9507515970    0.6849646881
Br      -0.8174643972   -2.1875686934   -2.3055281144
Br      -3.3786754657   -0.4429208030   -1.3297941825
H        2.2352340367   -0.2353002718    0.6768033516
H        2.0986659364    0.7413412094    2.1650909557
H        0.9665188014   -0.6050638190    1.8751435475
H       -1.1831937216    0.2961461893   -2.2951059135
H        1.1187977043    2.0304493515    0.5608170172
13   
torsion grid (75,)
C        1.5937631173    0.2084198068    1.3663666749
C       -1.4454662667   -0.5006350586   -1.5904353255
N        0.0229755222    0.7849780532   -0.3914349159
N        0.5677070249    1.1375663056    0.8361808900
N       -0.8109782156   -0.1918876970   -0.2870532856
O       -1.0774094299   -0.8841400678    0.7234796044
Br      -0.9082879938   -2.2815063828   -2.1814918635
Br      -3.3778569951   -0.3072115839   -1.4299331178
H        2.3687079002   -0.0159834978    0.6225427275
H        2.0493115967    0.6936895683    2.2325486175
H        1.1157478783   -0.7167252062    1.6891329168
H       -1.0909252478    0.2180176209   -2.3185397721
H        1.0161746154    2.0304825072    0.6441130033
13   
torsion grid (90,)
C        1.8082651038    0.2832583838    1.1694177429
C       -1.4217231508   -0.5325562547   -1.5591462981
N        0.1832370472    0.7250564680   -0.4886345002
N        0.7441203421    1.2049902684    0.7007511931
N       -0.8234302773   -0.0583439001   -0.2853854624
O       -1.3521771565   -0.3719946685    0.8109546881
Br      -1.2990943981   -2.4756841158   -1.6274856419
Br      -3.2447494172    0.1288472757   -1.7255329259
H        2.6195221654    0.2707389887    0.4380155749
H        2.1917285513    0.6814536342    2.1117820355
H        1.4418023107   -0.7384653673    1.3262475415
H       -0.8327676453   -0.1242000351   -2.3713797505
H        0.0087300306    1.1819636908    1.4158719569
13   
torsion grid (105,)
C        1.8871747326    0.3465613152    1.1737474885
C       -1.4415274604   -0.5396652041   -1.5767354978
N        0.1836187752    0.6218003283   -0.4353177377
N        0.6818589778    1.0985217715    0.7628347496
N       -0.8849416604   -0.0893450793   -0.2842735608
O       -1.4983842896   -0.3348157495    0.7909818794
Br      -1.4963059376   -2.4884521014   -1.6027751376
Br      -3.1875132222    0.2748638064   -1.8773116520
H        2.6583804994    0.4532709975    0.4076193884
H        2.2515221357    0.7888381813    2.1037727173
H        1.6776360620   -0.7188384387    1.3299563427
H       -0.7716258107   -0.2075134265   -2.3605011349
H       -0.0364292958    0.9698379676    1.4834783090
13   
torsion grid (120,)
C        1.9515275853    0.4048694389    1.1781834959
C       -1.4632009052   -0.5457830957   -1.5905580673
N        0.1896601391    0.5064453931   -0.3884232429
N        0.6417756337    0.9718880487    0.8139876464
N       -0.9397688043   -0.1135371301   -0.2869611487
O       -1.6201516489   -0.2819491207    0.7684374743
Br      -1.6846114545   -2.4852012403   -1.5856154403
Br      -3.1209868802    0.4005337651   -2.0042978662
H        2.6746182741    0.6285562106    0.3907738252
H        2.2783130934    0.8850736106    2.1031146006
H        1.9033299544   -0.6812404541    1.3242163356
H       -0.7312803471   -0.2905128488   -2.3472059346
H       -0.0557611341    0.7759217906    1.5398244760
13   
torsion grid (135,)
C        1.9988882207    0.4598093140    1.1816449933
C       -1.4825185890   -0.5506910697   -1.6022225458
N        0.2002384368    0.3819934040   -0.3465097113
N        0.6175947052    0.8317446159    0.8590421835
N       -0.9823975051   -0.1352476395   -0.2917266815
O       -1.7095238011   -0.2297240566    0.7465073354
Br      -1.8657331711   -2.4669898548   -1.5788467962
Br      -3.0428527417    0.5156566382   -2.1071422530
H        2.6580821794    0.7845777770    0.3738123112
H        2.2837037453    0.9796999470    2.0988023781
H        2.1113154790   -0.6222102245    1.3231480075
H       -0.7040073862   -0.3715278429   -2.3338146735
H       -0.0593260664    0.5979733600    1.5927816063
13   
torsion grid (150,)
C        2.0308388274    0.5094017155    1.1834055440
C       -1.4978712890   -0.5536330024   -1.6113449829
N        0.2144516962    0.2510518046   -0.3093231587
N        0.6093716424    0.6809938872    0.8987411853
N       -1.0122152399   -0.1545214431   -0.2968612200
O       -1.7698859651   -0.1797316177    0.7272717585
Br      -2.0353341409   -2.4350345552   -1.5792869638
Br      -2.9554277533    0.6213882307   -2.1873490621
H        2.6137742003    0.9194635722    0.3562403323
H        2.2668861499    1.0686011074    2.0911784534
H        2.3010179721   -0.5447043609    1.3240999214
H       -0.6862598535   -0.4486905318   -2.3210304845
H       -0.0558827409    0.4404795615    1.6397348311
13   
torsion grid (165,)
C        2.0501532074    0.5487410206    1.1842139675
C       -1.5099572988   -0.5530556909   -1.6182813927
N        0.2311410637    0.1183262236   -0.2803400511
N        0.6196884952    0.5154947009    0.9296179548
N       -1.0290059370   -0.1713226262   -0.3025582280
O       -1.8036884856   -0.1316132127    0.7116444640
Br      -2.1819609935   -2.3942391522   -1.5855546644
Br      -2.8711939923    0.7126205661   -2.2415362690
H        2.5521776154    1.0278193661    0.3413490815
H        2.2249884661    1.1448555095    2.0823461530
H        2.4717116007   -0.4541645146    1.3291623686
H       -0.6789242950   -0.5145134657   -2.3119918856
H       -0.0516659405    0.3261156438    1.6774046553
13   
torsion grid (180,)
C        2.0650296660    0.5786256787    1.1750859678
C       -1.5157335896   -0.6456436215   -1.5878346471
N        0.2550006676   -0.0432978519   -0.2562643709
N        0.6504666255    0.3753039023    0.9340503850
N       -1.0325978731   -0.1743018186   -0.3078327027
O       -1.8255878427    0.0917392236    0.6610161960
Br      -2.4300381330   -2.3698076250   -1.3801464759
Br      -2.6788351890    0.6985897329   -2.4203096306
H        2.3991807163    1.5718437720    0.8504560352
H        2.2531033662    0.4739525277    2.2458956130
H        2.6382171661   -0.1823180956    0.6413750632
H       -0.6661706587   -0.7985067705   -2.2421674792
H       -0.0885714157    0.5988853141    1.6021522003
