25
0 1 C10ClH10N3O
C                     2.289324760725     0.395134167825     1.022718865958
C                     1.803382280686    -0.390694683242    -0.021804937469
C                     3.221678225211    -0.123415275292     1.928297492906
C                     2.254530189642    -1.708087265406    -0.160834861679
C                     7.764406620798    -2.881520769937     5.202733934590
C                     5.573155330881    -3.227436318859     5.292080389468
C                     6.772659861968    -3.749011750728     5.744991268176
C                     3.679515330993    -1.442989962019     1.797401075342
C                     3.180096189094    -2.229237942604     0.739239232173
C                     5.001687404682    -1.301620227854     3.784489436673
N                     7.224623920936    -1.904687023961     4.474775157142
N                     5.890694984864    -2.118679916663     4.541136328906
N                     6.997227742087    -4.921524095322     6.495402923546
O                     4.589058495394    -2.032502434219     2.624549929847
Cl                    3.731883861367    -3.879746314151     0.560468543950
H                     1.949244194900     1.420239173203     1.140592650418
H                     1.080985986530     0.009873107933    -0.726707183385
H                     3.592155735454     0.510424879566     2.725945622809
H                     1.889901336436    -2.338247357897    -0.966160961318
H                     8.840211121044    -2.935779431348     5.322155191966
H                     4.551139889605    -3.560199517467     5.411218394159
H                     4.118506118507    -1.046686407810     4.382572166638
H                     5.550961575164    -0.398938862010     3.505229604843
H                     6.187297313873    -5.194971164206     7.042049856180
H                     7.798841309044    -4.833450433346     7.111723259234
