25
0 1 C10ClH10N3O
C                     6.547504648062    -2.217712579374     0.067742086155
C                     6.094434322968    -3.034867975173    -0.968722554733
C                     5.806588352765    -2.078908582083     1.245966353685
C                     4.886349278662    -3.724159440456    -0.824390232538
C                     7.207994553549    -2.360439377912     5.197933096057
C                     5.351352174141    -3.558401558517     4.975153490944
C                     6.612677007348    -3.604446124885     5.548409025387
C                     4.590830731039    -2.759365359748     1.392572248723
C                     4.143768197152    -3.587957867893     0.346435968250
C                     4.140290428648    -1.842238821330     3.578098423316
N                     6.387087317786    -1.611509942618     4.457755045303
N                     5.259205652138    -2.345962544666     4.336777551834
N                     7.166943499137    -4.604841036365     6.373674596408
O                     3.775314879701    -2.682750522260     2.494148642231
Cl                    2.631415681357    -4.457639335414     0.515654764398
H                     7.489278742215    -1.684489168624    -0.027992029791
H                     6.671834579704    -3.143288998326    -1.882176449848
H                     6.195253096352    -1.464864279912     2.049715240647
H                     4.513175742826    -4.367386389390    -1.615288352570
H                     8.193293335694    -1.990279590959     5.455911907606
H                     4.540146608769    -4.273328145920     4.955542792071
H                     3.243348571749    -1.814236250329     4.199776493050
H                     4.405593481427    -0.832880182370     3.254029516320
H                     8.170097492968    -4.691751471580     6.244583863781
H                     6.736498971202    -5.511609433603     6.223455098368
