15
0 1 C5H4N2O3S
C                    -0.180987014675     0.731359397206    -2.081802932712
C                    -0.680231935561     0.287300287955    -3.273712416132
C                    -0.675420815115    -0.039471550398    -0.985905102809
C                    -1.550428911645    -1.063579062026    -1.356845854782
C                    -2.382256999759    -2.157981034957    -0.728719591399
N                    -2.356351288164    -2.323594948943     0.610927395482
N                    -0.226445781870     0.318087632860     0.352778135953
O                     0.500471368448     1.308747345280     0.454553513564
O                    -3.062267792164    -2.859103341597    -1.483302861848
O                    -0.573575512027    -0.369524599672     1.328859423686
S                    -1.748484145659    -1.052339555034    -3.079708081291
H                     0.504967871876     1.559041006160    -1.959621688091
H                    -0.473342654234     0.681759495540    -4.260692505402
H                    -2.920492861717    -3.073478051531     0.989840863605
H                    -1.766111313718    -1.750403873576     1.203427829760
