
  -OEChem-12122420523D

 15 15  0     0  0  0  0  0  0999 V2000
   -0.1810    0.7314   -2.0818 C   0  0  0  0  0  0  0  0  0  0  0  0
   -0.6802    0.2873   -3.2737 C   0  0  0  0  0  0  0  0  0  0  0  0
   -0.6754   -0.0395   -0.9859 C   0  0  0  0  0  0  0  0  0  0  0  0
   -1.5504   -1.0636   -1.3568 C   0  0  0  0  0  0  0  0  0  0  0  0
   -2.3823   -2.1580   -0.7287 C   0  0  0  0  0  0  0  0  0  0  0  0
   -2.3564   -2.3236    0.6109 N   0  0  0  0  0  0  0  0  0  0  0  0
   -0.2264    0.3181    0.3528 N   0  3  0  0  0  0  0  0  0  0  0  0
    0.5005    1.3087    0.4546 O   0  5  0  0  0  0  0  0  0  0  0  0
   -3.0623   -2.8591   -1.4833 O   0  0  0  0  0  0  0  0  0  0  0  0
   -0.5736   -0.3695    1.3289 O   0  0  0  0  0  0  0  0  0  0  0  0
   -1.7485   -1.0523   -3.0797 S   0  0  0  0  0  0  0  0  0  0  0  0
    0.5050    1.5590   -1.9596 H   0  0  0  0  0  0  0  0  0  0  0  0
   -0.4733    0.6818   -4.2607 H   0  0  0  0  0  0  0  0  0  0  0  0
   -2.9205   -3.0735    0.9898 H   0  0  0  0  0  0  0  0  0  0  0  0
   -1.7661   -1.7504    1.2034 H   0  0  0  0  0  0  0  0  0  0  0  0
  1  2  2  0  0  0  0
  1  3  1  0  0  0  0
  1 12  1  0  0  0  0
  2 11  1  0  0  0  0
  2 13  1  0  0  0  0
  3  4  2  0  0  0  0
  3  7  1  0  0  0  0
  4  5  1  0  0  0  0
  4 11  1  0  0  0  0
  5  6  1  0  0  0  0
  5  9  2  0  0  0  0
  6 14  1  0  0  0  0
  6 15  1  0  0  0  0
  7  8  1  0  0  0  0
  7 10  2  0  0  0  0
M  CHG  2   7   1   8  -1
M  END
$$$$
