
  -OEChem-12122420523D

 48 51  0     1  0  0  0  0  0999 V2000
    6.0508   -6.8111    3.5797 C   0  0  0  0  0  0  0  0  0  0  0  0
    6.6289   -6.0491    4.5596 C   0  0  0  0  0  0  0  0  0  0  0  0
    4.1957   -6.3040    4.6806 C   0  0  0  0  0  0  0  0  0  0  0  0
    1.7157   -2.0959    3.0260 C   0  0  0  0  0  0  0  0  0  0  0  0
   -0.1715   -0.8413    4.8809 C   0  0  0  0  0  0  0  0  0  0  0  0
    0.8281   -1.9193    5.3664 C   0  0  0  0  0  0  0  0  0  0  0  0
    0.1238   -3.9070    3.8781 C   0  0  0  0  0  0  0  0  0  0  0  0
    0.0862   -0.5051    0.3434 C   0  0  0  0  0  0  0  0  0  0  0  0
    1.3371    1.1781    1.7395 C   0  0  0  0  0  0  0  0  0  0  0  0
   -0.4033   -0.8955    3.3646 C   0  0  0  0  0  0  0  0  0  0  0  0
    0.5824   -5.2325    4.4890 C   0  0  0  0  0  0  0  0  0  0  0  0
    2.4042   -3.8215    4.7538 C   0  0  0  0  0  0  0  0  0  0  0  0
    0.4306    0.3642   -0.8695 C   0  0  0  0  0  0  0  0  0  0  0  0
    1.6005    1.9419    0.4383 C   0  0  0  0  0  0  0  0  0  0  0  0
    1.1455   -0.3153    1.4386 C   0  0  0  0  0  0  0  0  0  0  0  0
    1.2643   -2.9006    4.2571 C   0  0  1  0  0  0  0  0  0  0  0  0
    2.7314   -6.2442    5.0247 C   0  0  0  0  0  0  0  0  0  0  0  0
    4.6834   -6.9525    3.6585 N   0  0  0  0  0  0  0  0  0  0  0  0
    0.8541   -1.0972    2.6450 N   0  0  0  0  0  0  0  0  0  0  0  0
    2.0313   -5.1731    4.3281 N   0  0  1  0  0  0  0  0  0  0  0  0
    2.7730   -2.3217    2.4341 O   0  0  0  0  0  0  0  0  0  0  0  0
    0.5581    1.7405   -0.5150 O   0  0  0  0  0  0  0  0  0  0  0  0
    5.4083   -5.4717    5.6427 S   0  0  0  0  0  0  0  0  0  0  0  0
    6.5901   -7.2970    2.7736 H   0  0  0  0  0  0  0  0  0  0  0  0
    7.6742   -5.8060    4.6988 H   0  0  0  0  0  0  0  0  0  0  0  0
   -1.1385   -0.9459    5.3838 H   0  0  0  0  0  0  0  0  0  0  0  0
    0.2108    0.1517    5.1367 H   0  0  0  0  0  0  0  0  0  0  0  0
    1.7273   -1.4349    5.7617 H   0  0  0  0  0  0  0  0  0  0  0  0
    0.4036   -2.4973    6.1943 H   0  0  0  0  0  0  0  0  0  0  0  0
    0.0470   -4.0101    2.7921 H   0  0  0  0  0  0  0  0  0  0  0  0
   -0.8519   -3.5985    4.2617 H   0  0  0  0  0  0  0  0  0  0  0  0
   -0.9056   -0.2168    0.7111 H   0  0  0  0  0  0  0  0  0  0  0  0
    0.0406   -1.5593    0.0465 H   0  0  0  0  0  0  0  0  0  0  0  0
    2.1779    1.3128    2.4293 H   0  0  0  0  0  0  0  0  0  0  0  0
    0.4424    1.5966    2.2155 H   0  0  0  0  0  0  0  0  0  0  0  0
   -1.1211   -1.6832    3.1083 H   0  0  0  0  0  0  0  0  0  0  0  0
   -0.8461    0.0437    3.0288 H   0  0  0  0  0  0  0  0  0  0  0  0
    0.2837   -5.2891    5.5559 H   0  0  0  0  0  0  0  0  0  0  0  0
    0.1676   -6.1075    3.9779 H   0  0  0  0  0  0  0  0  0  0  0  0
    3.3661   -3.5318    4.3319 H   0  0  0  0  0  0  0  0  0  0  0  0
    2.4667   -3.7590    5.8582 H   0  0  0  0  0  0  0  0  0  0  0  0
    1.3678    0.0117   -1.3303 H   0  0  0  0  0  0  0  0  0  0  0  0
   -0.3580    0.3174   -1.6249 H   0  0  0  0  0  0  0  0  0  0  0  0
    1.6457    3.0196    0.6155 H   0  0  0  0  0  0  0  0  0  0  0  0
    2.5638    1.6253    0.0061 H   0  0  0  0  0  0  0  0  0  0  0  0
    2.0941   -0.7129    1.0710 H   0  0  0  0  0  0  0  0  0  0  0  0
    2.2930   -7.1975    4.7158 H   0  0  0  0  0  0  0  0  0  0  0  0
    2.6134   -6.1597    6.1232 H   0  0  0  0  0  0  0  0  0  0  0  0
  1  2  2  0  0  0  0
  1 18  1  0  0  0  0
  1 24  1  0  0  0  0
  2 23  1  0  0  0  0
  2 25  1  0  0  0  0
  3 17  1  0  0  0  0
  3 18  2  0  0  0  0
  3 23  1  0  0  0  0
  4 16  1  0  0  0  0
  4 19  1  0  0  0  0
  4 21  2  0  0  0  0
  5  6  1  0  0  0  0
  5 10  1  0  0  0  0
  5 26  1  0  0  0  0
  5 27  1  0  0  0  0
  6 16  1  0  0  0  0
  6 28  1  0  0  0  0
  6 29  1  0  0  0  0
  7 11  1  0  0  0  0
  7 16  1  0  0  0  0
  7 30  1  0  0  0  0
  7 31  1  0  0  0  0
  8 13  1  0  0  0  0
  8 15  1  0  0  0  0
  8 32  1  0  0  0  0
  8 33  1  0  0  0  0
  9 14  1  0  0  0  0
  9 15  1  0  0  0  0
  9 34  1  0  0  0  0
  9 35  1  0  0  0  0
 10 19  1  0  0  0  0
 10 36  1  0  0  0  0
 10 37  1  0  0  0  0
 11 20  1  0  0  0  0
 11 38  1  0  0  0  0
 11 39  1  0  0  0  0
 12 16  1  0  0  0  0
 12 20  1  0  0  0  0
 12 40  1  0  0  0  0
 12 41  1  0  0  0  0
 13 22  1  0  0  0  0
 13 42  1  0  0  0  0
 13 43  1  0  0  0  0
 14 22  1  0  0  0  0
 14 44  1  0  0  0  0
 14 45  1  0  0  0  0
 15 19  1  0  0  0  0
 15 46  1  0  0  0  0
 17 20  1  0  0  0  0
 17 47  1  0  0  0  0
 17 48  1  0  0  0  0
M  END
$$$$
