14   
torsion grid (-165,)
C        1.1842685269   -0.7169324574   -3.0107514596
C       -0.9176373958   -1.0308645154    0.9937160791
N       -0.0302688203   -2.0266414365    1.5806972500
O       -0.9228571303    1.1461459610   -0.9136877451
P       -0.2151573452   -0.0826118985   -0.4367781167
S        0.0837570475   -1.6391471537   -1.8624574187
H        1.3806593543   -1.3811946731   -3.8541601443
H        2.1295625854   -0.4631299337   -2.5256943412
H        0.6858724919    0.1857076858   -3.3670377116
H       -1.1936472611   -0.2855138885    1.7470658019
H       -1.8466754111   -1.5054433884    0.6625489819
H        0.2400993242   -2.7302406413    0.8965759618
H        0.8215483526   -1.6013583348    1.9404365214
H        1.1206043272    0.1522079456    0.0004539443
14   
torsion grid (-150,)
C        1.2286893299   -0.7689467859   -2.9304944672
C       -0.9028569052   -1.0295751554    1.0032758174
N        0.0539848406   -2.0163727087    1.4840992038
O       -1.1233759703    1.1921282384   -0.8309165338
P       -0.3478638531   -0.0318683644   -0.4602345325
S       -0.1127918502   -1.5496897946   -1.9450770894
H        1.4265649280   -1.4377050055   -3.7701898961
H        2.1384721531   -0.6614824764   -2.3358473895
H        0.9081726434    0.2012892206   -3.3133515793
H       -1.1280609405   -0.3083763743    1.7958902937
H       -1.8472530369   -1.5185113105    0.7438113135
H        0.2891877101   -2.6844289585    0.7525871160
H        0.9185195917   -1.5775522440    1.7936392411
H        1.0187400055    0.2120749903   -0.1362638948
14   
torsion grid (-135,)
C        1.2659893922   -0.8330219866   -2.8314887427
C       -0.8753077084   -1.0236190049    1.0003914320
N        0.1408318754   -1.9991871447    1.3662203109
O       -1.3382739053    1.2157460986   -0.7452052926
P       -0.4735786831    0.0256836460   -0.4772320695
S       -0.2707252755   -1.4420230884   -2.0257120693
H        1.4451343472   -1.4876358040   -3.6866839165
H        2.1180213421   -0.8924356606   -2.1513403234
H        1.1376232016    0.1896854890   -3.1901694988
H       -1.0491596902   -0.3310672854    1.8306200266
H       -1.8267506613   -1.5289942144    0.8065352611
H        0.3224286764   -2.6393447001    0.5951231394
H        1.0198142705   -1.5492865878    1.6130322165
H        0.9040814646    0.3164835144   -0.2531628709
14   
torsion grid (-120,)
C        1.2928584295   -0.9034095477   -2.7092488563
C       -0.8344727291   -1.0101905816    0.9855524596
N        0.2250439446   -1.9780802933    1.2268321117
O       -1.5531035244    1.2079128184   -0.6804100427
P       -0.5888661919    0.0807019844   -0.4956782137
S       -0.3913963678   -1.3287703197   -2.1045325877
H        1.4641607111   -1.5189505375   -3.5947668078
H        2.0557675402   -1.1332462816   -1.9630768438
H        1.3505130427    0.1479458729   -2.9969302938
H       -0.9407881298   -0.3443740771    1.8484994774
H       -1.7915189282   -1.5267553125    0.8635692564
H        0.3320797916   -2.6018377638    0.4286344235
H        1.1198287991   -1.5230625795    1.3949179415
H        0.7800222587    0.4530998896   -0.3524344213
14   
torsion grid (-105,)
C        1.3003581361   -0.9766862343   -2.5776739176
C       -0.7822430799   -0.9966888660    0.9533551017
N        0.3083959972   -1.9522838657    1.0809804669
O       -1.7470105530    1.1823687006   -0.6154335186
P       -0.6845089275    0.1364131007   -0.5115154703
S       -0.4841340119   -1.1943446065   -2.1869382067
H        1.4853939598   -1.5506235207   -3.4881966730
H        1.9405255873   -1.3612045615   -1.7813037440
H        1.5331914659    0.0720615031   -2.7724218731
H       -0.8302023818   -0.3591800216    1.8426618565
H       -1.7365739106   -1.5281495880    0.8902577266
H        0.3472921244   -2.5665728090    0.2695627844
H        1.2098013545   -1.4895824614    1.1765229433
H        0.6598428853    0.6054565013   -0.4289298731
14   
torsion grid (-90,)
C        1.2899393595   -1.0574028068   -2.4606779016
C       -0.7175949643   -0.9740557205    0.9172818880
N        0.3896324586   -1.9179125242    0.9598562375
O       -1.9217565267    1.1268747848   -0.5686779787
P       -0.7635700228    0.1834129276   -0.5302026661
S       -0.5397112494   -1.0475103883   -2.2722693630
H        1.4932700438   -1.5199794086   -3.4288602483
H        1.7823855098   -1.6401127706   -1.6803892196
H        1.6881805834   -0.0401730537   -2.4718782440
H       -0.7116838767   -0.3477541882    1.8162309192
H       -1.6668275778   -1.5183415785    0.9164662699
H        0.3666841643   -2.5423099218    0.1565105163
H        1.2925082605   -1.4492997503    0.9810650296
H        0.5386724840    0.7655476703   -0.4835276362
14   
torsion grid (-75,)
C       -0.9637540185   -2.7305326962   -1.8249673427
C       -1.6593053735   -0.5969886190    1.0512876105
N       -0.9722712322   -0.1927658946    2.2797527948
O       -0.3412922454    1.3517427345   -0.4480362568
P       -0.5795785472   -0.1212799199   -0.3546095212
S       -1.4555772026   -0.9798636888   -2.0971011246
H       -1.2717083657   -3.2777614871   -2.7180667793
H       -1.4661296614   -3.1660947502   -0.9585328474
H        0.1194218057   -2.8238943182   -1.7145379361
H       -2.6452404158   -0.1392753584    0.8728544624
H       -1.7868460166   -1.6850763276    1.0439117314
H       -0.8986053386    0.8222658495    2.3178766695
H       -1.4958464621   -0.4952711220    3.0984394621
H        0.5656801229   -0.9392222616   -0.1634173714
14   
torsion grid (-60,)
C       -1.0621662900   -2.7087550002   -1.7416833644
C       -1.5796247978   -0.6687578864    0.9980673506
N       -0.9453678543   -0.2099223972    2.2354396562
O       -0.4443786044    1.4373567729   -0.4545685301
P       -0.5421071289   -0.0528459374   -0.3872366171
S       -1.2995786431   -0.9360963020   -2.1700791471
H       -1.1635064239   -3.2690363128   -2.6731834443
H       -1.8183587781   -3.0576292456   -1.0360670140
H       -0.0620031316   -2.8907581112   -1.3381631913
H       -2.6090061333   -0.3188982633    0.8208373589
H       -1.5846129012   -1.7636106134    0.9774924227
H       -0.9861137873    0.8059879579    2.2920817198
H       -1.4298098515   -0.5858563457    3.0476018155
H        0.6755813740   -0.7551961753   -0.1856854642
14   
torsion grid (-45,)
C       -1.1516160532   -2.6852458749   -1.6996033249
C       -1.4897830389   -0.7494536431    0.9635891256
N       -0.9605347715   -0.1930449630    2.2098188547
O       -0.5307301759    1.4844756367   -0.4392617068
P       -0.4850744384   -0.0089821349   -0.3874464419
S       -1.0935781319   -0.9202177716   -2.2143172315
H       -1.2348044284   -3.2685797245   -2.6188968076
H       -2.0202573383   -2.8905777425   -1.0720179916
H       -0.2348103466   -2.9866254621   -1.1852110950
H       -2.5509506470   -0.5423036851    0.7511545958
H       -1.3453354196   -1.8342298209    0.9633287604
H       -1.1232560805    0.8116062047    2.2423364984
H       -1.4215088247   -0.6112937055    3.0147684950
H        0.7911867436   -0.5795451731   -0.1433881792
14   
torsion grid (-30,)
C       -1.2258976011   -2.6732018886   -1.6796083794
C       -1.4023606120   -0.8107262007    0.9448420162
N       -0.9847098670   -0.1759678688    2.1957200462
O       -0.6333011741    1.5053282981   -0.4510597342
P       -0.4337882155    0.0249809330   -0.3786925789
S       -0.8667083227   -0.9538084108   -2.2258837034
H       -1.3671406006   -3.2501778610   -2.5960406847
H       -2.1420278663   -2.7237277882   -1.0895568978
H       -0.3918133134   -3.1094511411   -1.1245092993
H       -2.4725578539   -0.7286079326    0.6950354517
H       -1.1349340828   -1.8713617200    0.9719512032
H       -1.2548689546    0.8058413851    2.1993814317
H       -1.4277770486   -0.6269445014    2.9929872932
H        0.8868325615   -0.3861931627   -0.0697126132
14   
torsion grid (-15,)
C       -1.2914489813   -2.6621416233   -1.6733151790
C       -1.3212813511   -0.8569862054    0.9425205869
N       -0.9943320073   -0.1617153551    2.1884776012
O       -0.7522954986    1.4954500628   -0.4823721641
P       -0.4016845752    0.0454381118   -0.3727687746
S       -0.6480057226   -1.0247681890   -2.2103348325
H       -1.4492480230   -3.2252160626   -2.5957757611
H       -2.2465354735   -2.5708805377   -1.1545779296
H       -0.5727390492   -3.2050457550   -1.0558063339
H       -2.3888573040   -0.8766201604    0.6706727648
H       -0.9591019853   -1.8881834426    0.9961499783
H       -1.3471651828    0.7932612183    2.1605008209
H       -1.4221959970   -0.6312114962    2.9834346341
H        0.9438381998   -0.2053984255   -0.0119518601
14   
torsion grid (0,)
C       -1.3594701369   -2.6374240387   -1.6830985824
C       -1.2350062336   -0.8995218612    0.9578532953
N       -0.9986823867   -0.1458524261    2.1906363759
O       -0.8761614328    1.4553290653   -0.5150514622
P       -0.3804081093    0.0512546013   -0.3673805106
S       -0.4543086060   -1.1118968441   -2.1680404762
H       -1.4458528328   -3.2202015069   -2.6027488216
H       -2.3632135578   -2.4152581519   -1.3183281602
H       -0.8087526838   -3.2280862985   -0.9488556187
H       -2.2906177114   -1.0266233382    0.6714304259
H       -0.7783940907   -1.8907360393    1.0433957735
H       -1.4325425294    0.7734797902    2.1267823942
H       -1.4061955219   -0.6297177463    2.9878606907
H        0.9785528819   -0.0487630651    0.0103982277
14   
torsion grid (15,)
C       -1.4328369691   -2.5933752361   -1.7014903981
C       -1.1337126852   -0.9467808283    0.9889318428
N       -1.0084068309   -0.1253441777    2.1949365470
O       -1.0035146700    1.3775071902   -0.5407498144
P       -0.3628850154    0.0367336412   -0.3623358362
S       -0.2913853091   -1.2096446515   -2.1041984078
H       -1.4224583048   -3.2358643294   -2.5845159320
H       -2.4530582973   -2.2417951334   -1.5392112536
H       -1.0877564965   -3.1739258373   -0.8448136720
H       -2.1625544243   -1.1992769859    0.6899985214
H       -0.5730029213   -1.8783818632    1.1202527101
H       -1.5199640154    0.7474704642    2.0747655273
H       -1.4032343136   -0.6109004109    2.9976911192
H        1.0037173018    0.0795602985   -0.0044074023
14   
torsion grid (30,)
C       -1.4786598739   -2.5554730058   -1.7324241915
C       -1.0549003384   -0.9743745050    1.0316998733
N       -1.0170320221   -0.0972886651    2.2045687003
O       -1.1308911855    1.2684195915   -0.6024993045
P       -0.3612147637    0.0068086960   -0.3616416311
S       -0.1313086224   -1.3356201323   -2.0092445830
H       -1.4496088624   -3.2197361973   -2.5985884083
H       -2.4565694871   -2.0719429632   -1.6965922538
H       -1.3103047616   -3.1462436655   -0.8310630924
H       -2.0557325733   -1.3234094570    0.7347239788
H       -0.4198972273   -1.8500771239    1.2041115282
H       -1.6001222056    0.7221273607    2.0414757358
H       -1.3835600508   -0.5825615606    3.0209576752
H        0.9987490228    0.1853537678   -0.0206304757
14   
torsion grid (45,)
C       -1.5152449837   -2.5161204091   -1.7878587372
C       -0.9780846935   -0.9947098592    1.0997965565
N       -1.0305375363   -0.0463262755    2.2157348020
O       -1.2571230508    1.1084463700   -0.6781869512
P       -0.3665881605   -0.0519570929   -0.3561158456
S       -0.0006842844   -1.4783253234   -1.8948996573
H       -1.5049512966   -3.1530108304   -2.6744598467
H       -2.4161234747   -1.8999372119   -1.8109712979
H       -1.5041709514   -3.1462522121   -0.8975541391
H       -1.9414316880   -1.4501248718    0.8230015597
H       -0.2684209346   -1.7974437931    1.3259244351
H       -1.6869077316    0.7025583138    2.0003116943
H       -1.3565326220   -0.5116978957    3.0604610116
H        0.9757484566    0.2608832318   -0.0403300332
14   
torsion grid (60,)
C       -1.5567418343   -2.4723530942   -1.8622616423
C       -0.8886506007   -1.0056581804    1.1896622606
N       -1.0631334332    0.0173047612    2.2234898008
O       -1.3618968496    0.9213503323   -0.7399678041
P       -0.3720758868   -0.1303922508   -0.3417154355
S        0.0791806512   -1.6346143523   -1.7714561157
H       -1.5446459973   -3.0730894144   -2.7734343204
H       -2.3590868340   -1.7357684079   -1.9365189056
H       -1.7143601649   -3.1263399960   -1.0034160967
H       -1.7871509600   -1.5969177302    0.9510400952
H       -0.0909624626   -1.6976427613    1.4785147737
H       -1.7941966643    0.6694220873    1.9439652718
H       -1.3461297389   -0.4105276216    3.1027678790
H        0.9487978243    0.3012087685   -0.0758162095
14   
torsion grid (75,)
C       -1.5864797636   -2.4322285895   -1.9655003666
C       -0.8184399234   -1.0041092015    1.2871723996
N       -1.0620118890    0.0761561841    2.2451145921
O       -1.4834396781    0.7165001483   -0.7832474966
P       -0.4063030345   -0.2167355828   -0.3199086374
S        0.1090358107   -1.7905797900   -1.6475716245
H       -1.5199093898   -3.0516916387   -2.8614846573
H       -2.2687516771   -1.6010064134   -2.1517484859
H       -1.9425357719   -3.0400146662   -1.1319673301
H       -1.6626145180   -1.6922716712    1.1162195233
H        0.0437093494   -1.5993812181    1.6048459065
H       -1.8592318811    0.6338530295    1.9435435268
H       -1.2765090582   -0.3036960541    3.1647833503
H        0.8824284733    0.3311876039   -0.1153971491
14   
torsion grid (90,)
C        0.2344327876   -0.6766880640   -2.9118040881
C       -1.0767741680   -0.9320500263    0.7481386662
N       -2.1895662836   -1.2021538230   -0.1537580383
O       -0.2419155490    1.4111650403   -0.5235029871
P        0.2659093997    0.1021672134    0.0052082729
S        1.2630370791   -1.1039000616   -1.4448985184
H       -0.6191016587   -1.3496587813   -3.0073789323
H        0.8795067195   -0.7800631931   -3.7858001523
H       -0.1023422511    0.3586327912   -2.8311119380
H       -0.6471350064   -1.8744870768    1.1032139127
H       -1.4461500943   -0.3828520508    1.6226256966
H       -2.5384682789   -0.3326242696   -0.5541440148
H       -1.8920966423   -1.8002283425   -0.9216117051
H        1.2817623338    0.1506106625    0.9975814176
14   
torsion grid (105,)
C        0.3123964566   -0.6082194443   -2.9949915177
C       -1.0937945572   -0.9200986568    0.8245241718
N       -2.2286301234   -1.2689394311   -0.0211088450
O       -0.2878282344    1.3362699517   -0.6448589761
P        0.2134421896    0.0552127126   -0.0451845564
S        1.0864374245   -1.2843455737   -1.4665042204
H       -0.6053882692   -1.1472443241   -3.2351830942
H        1.0385486602   -0.7358097877   -3.7992092542
H        0.0998838410    0.4531801720   -2.8535790330
H       -0.6410053040   -1.8296098627    1.2341645080
H       -1.4410147476   -0.3106437978    1.6672173461
H       -2.6197865770   -0.4305457090   -0.4479652934
H       -1.9320354122   -1.8889906284   -0.7731128717
H        1.2698730405    0.1676543977    0.8985492279
14   
torsion grid (120,)
C        0.4151986952   -0.5781719905   -3.0830068674
C       -1.0940497047   -0.9233320417    0.8897056295
N       -2.3000937633   -1.2601874493    0.1453785472
O       -0.3770690137    1.2600791497   -0.7405105774
P        0.1534188978    0.0066456370   -0.1070682005
S        0.8862834289   -1.4302844877   -1.5183339925
H       -0.3742023622   -1.1440907227   -3.5794854676
H        1.2995847559   -0.5269633612   -3.7192034131
H        0.0645222007    0.4303027611   -2.8517722280
H       -0.6273554267   -1.8348002303    1.2798881107
H       -1.3559535676   -0.2915800909    1.7465911315
H       -2.7091408386   -0.4172391133   -0.2554623480
H       -2.0722853887   -1.8842913795   -0.6275886666
H        1.2622404744    0.1817833378    0.7636259340
14   
torsion grid (135,)
C        0.5114112893   -0.5652251292   -3.1457334518
C       -1.0829394211   -0.9283449471    0.9354368885
N       -2.3691169425   -1.2101530904    0.3125539522
O       -0.4643230534    1.1987705248   -0.8117806769
P        0.0952691344   -0.0429140623   -0.1806319057
S        0.6505953965   -1.5507105921   -1.5955235483
H        0.0487193871   -1.2071719365   -3.8968041210
H        1.5022509388   -0.2523522754   -3.4769853873
H       -0.1138279833    0.3108321951   -2.9624812641
H       -0.6199827124   -1.8589369880    1.2828589033
H       -1.2323200117   -0.2872262107    1.8120382402
H       -2.7773276359   -0.3468027517   -0.0436183996
H       -2.2429276239   -1.8320726486   -0.4850444291
H        1.2656176254    0.1601779304    0.5984727912
14   
torsion grid (150,)
C        0.6136076723   -0.5662971061   -3.1809921096
C       -1.0712138452   -0.9287824807    0.9605532666
N       -2.4212922266   -1.1816318432    0.4741390120
O       -0.5968848556    1.1722844072   -0.8762914908
P        0.0045627725   -0.0601069874   -0.2671358550
S        0.4254265104   -1.6080060329   -1.6752581660
H        0.3944031877   -1.2110892817   -4.0337386562
H        1.6322311965   -0.1834235213   -3.2582840240
H       -0.0970349726    0.2605636156   -3.1432101396
H       -0.5936486388   -1.8689817361    1.2590420453
H       -1.1163587469   -0.2882417264    1.8488850500
H       -2.8431340644   -0.3088695969    0.1589476486
H       -2.3938990060   -1.8044169486   -0.3319728868
H        1.2343334042    0.1648692569    0.4080738972
14   
torsion grid (165,)
C        0.7076846487   -0.5524677898   -3.1990743072
C       -1.0555104656   -0.9434735629    0.9655807403
N       -2.4505131759   -1.1864128185    0.6176498335
O       -0.7431331152    1.1793814470   -0.8947810167
P       -0.1016637874   -0.0624353230   -0.3511704076
S        0.1999241034   -1.6099172097   -1.7818549372
H        0.6410745631   -1.1773443917   -4.0913980327
H        1.7341655343   -0.2034715839   -3.0732859164
H        0.0275693296    0.2957465055   -3.2874592344
H       -0.5540876113   -1.8876258459    1.2058007905
H       -1.0091067018   -0.3115482522    1.8597763269
H       -2.8991663132   -0.3085513195    0.3588464078
H       -2.5130278749   -1.7992850561   -0.1937701785
H        1.1868892534    0.1552752190    0.2078975234
14   
torsion grid (180,)
C        0.7900382593   -0.5531478384   -3.1999779537
C       -1.0386250323   -0.9479782799    0.9558174212
N       -2.4593418603   -1.1994165130    0.7389349393
O       -0.8876786077    1.2189893716   -0.8774532351
P       -0.2134022456   -0.0424443587   -0.4295572388
S       -0.0291814843   -1.5663525004   -1.9016558252
H        0.8360705785   -1.1741948030   -4.0962420978
H        1.8031063175   -0.2812638868   -2.8963858902
H        0.2011223655    0.3422998464   -3.4031658531
H       -0.5097854251   -1.8895233784    1.1381796149
H       -0.9151434735   -0.3235683104    1.8479764243
H       -2.9364229881   -0.3254539394    0.5211778777
H       -2.5975753124   -1.8184064472   -0.0580094332
H        1.1279172959    0.1483310560    0.0031188414
