6    
torsion grid (-165,)
O       -0.4552533092   -0.2067442919    1.7397519909
P       -0.5023621369   -0.1254601287    0.2397457548
O        0.8715195926    0.7341390038   -0.2586647323
O       -1.6602865131    0.4006641288   -0.5790371438
H       -0.1513965299   -1.4114384617   -0.2832653255
H        0.7013977275    0.9825122101   -1.1818649097
6    
torsion grid (-150,)
O       -0.4761018020   -0.2828427118    1.7376670409
P       -0.4766191049   -0.2105984653    0.2359325223
O        0.9184921482    0.6221313583   -0.2502366146
O       -1.6011997026    0.3444580511   -0.6123065500
H       -0.1370958296   -1.5056075693   -0.2652816670
H        0.6654127138    1.0591360561   -1.0795697120
6    
torsion grid (-135,)
O       -0.4623426679   -0.2030961216    1.7083698366
P       -0.4723696563   -0.1996273599    0.2041368310
O        0.9374513976    0.5623634454   -0.3540268276
O       -1.5921412806    0.3642182234   -0.6462048361
H       -0.1734998324   -1.5222453151   -0.2414217486
H        0.6224409035    1.1536038522   -1.0571130730
6    
torsion grid (-120,)
O       -0.4982985211   -0.2101634343    1.6782811288
P       -0.4718741563   -0.2352200470    0.1733080137
O        0.9661153721    0.4758220268   -0.3848086008
O       -1.5675750808    0.3473873844   -0.6953515913
H       -0.1822002109   -1.5660834706   -0.2473802323
H        0.6651074411    1.2243321680   -0.9258994562
6    
torsion grid (-105,)
O       -0.4752991214   -0.2475898705    1.7525689085
P       -0.4759720835   -0.3137869540    0.2470788809
O        0.9253404802    0.4267670099   -0.3676558638
O       -1.6212258240    0.2023352575   -0.5979907078
H       -0.1255651847   -1.6348997181   -0.1537493328
H        0.6224811499    1.2805696367   -0.7190259948
6    
torsion grid (-90,)
O       -0.4431942557   -0.2319851820    1.7748823833
P       -0.5173274261   -0.3521009415    0.2731534343
O        0.8372178386    0.3973867552   -0.4322825019
O       -1.7277846668    0.0942546120   -0.5166025450
H       -0.1317937455   -1.6673984477   -0.1123358286
H        0.5816351447    1.3225719910   -0.5845804577
6    
torsion grid (-75,)
O       -0.2469377509   -0.0890279298    1.6743195315
P       -0.3111455849   -0.2784143679    0.1778929099
O        1.0809140547    0.3992684353   -0.5290835617
O       -1.5088591405    0.1503010651   -0.6378186977
H        0.0535214532   -1.6139955046   -0.1535230359
H        0.9636229623    1.3639216271   -0.5085886036
6    
torsion grid (-60,)
O       -0.2141229220   -0.0170885779    1.6491844051
P       -0.3254405688   -0.2671374821    0.1630593726
O        1.0447972518    0.4051412150   -0.5909182498
O       -1.5568204025    0.1014931435   -0.6286487845
H        0.0506198479   -1.6074039985   -0.1353350670
H        1.0380242217    1.3559941277   -0.3894817071
6    
torsion grid (-45,)
O       -0.4129473745   -0.1415791727    1.8549092112
P       -0.5573246388   -0.3950071743    0.3707375021
O        0.7287440249    0.4110601599   -0.3978966568
O       -1.8411788291   -0.1420067615   -0.3792970538
H       -0.0797193417   -1.6970113590    0.0472992261
H        0.7771992435    1.2915293909    0.0106912811
6    
torsion grid (-30,)
O       -0.3717906036   -0.0639402840    1.7328596587
P       -0.5431983345   -0.3538022575    0.2569608934
O        0.7263337654    0.4590944930   -0.5293005875
O       -1.8356094741   -0.1330513002   -0.4857016830
H       -0.0710484971   -1.6652060922   -0.0378638384
H        0.9123753590    1.2330624159    0.0279756334
6    
torsion grid (-15,)
O       -0.2446230822    0.0837402349    1.7843817373
P       -0.4754352237   -0.2756281173    0.3311340889
O        0.7642144911    0.5069730964   -0.5265987015
O       -1.7855878197   -0.0850888962   -0.3852736547
H       -0.0315372081   -1.6098577365    0.0954169313
H        1.1209505510    1.1512928079    0.1068495130
6    
torsion grid (0,)
O       -0.2839475140    0.1187874970    1.7854166677
P       -0.4881826337   -0.2322989238    0.3260202864
O        0.7372367583    0.5948678111   -0.5069444757
O       -1.7834553606   -0.0641057738   -0.4200979273
H       -0.0203061220   -1.5619325831    0.1009736987
H        1.2239063909    1.0607972279    0.1924669081
6    
torsion grid (15,)
O       -0.3247224983    0.0988876792    1.7706745891
P       -0.5201587211   -0.2472468089    0.3098012461
O        0.6329203955    0.6643522630   -0.5358971816
O       -1.8240295505   -0.1475974921   -0.4320307272
H        0.0226604920   -1.5493523479    0.0792229565
H        1.2543532982    0.9666846388    0.1461719804
6    
torsion grid (30,)
O       -0.3729591132    0.1770112891    1.7990983572
P       -0.5252741314   -0.1544514101    0.3312485382
O        0.6350603424    0.7655240439   -0.4944468888
O       -1.8068157685   -0.0479605887   -0.4466906026
H        0.0303353331   -1.4554063902    0.1115036374
H        1.3726987957    0.8752363325    0.1274905703
6    
torsion grid (45,)
O       -0.5474357281    0.0994998785    1.7815619228
P       -0.5848652324   -0.1329049370    0.2890225703
O        0.6248953490    0.8301861299   -0.4082271887
O       -1.8066396592    0.0312420047   -0.5707816729
H       -0.0054048559   -1.4183642217    0.0297877556
H        1.4194535179    0.7195203048    0.1391622129
6    
torsion grid (60,)
O       -0.7589177064   -0.0089017329    1.7209869088
P       -0.6745362821   -0.1553364324    0.2208929717
O        0.5432686696    0.8809607275   -0.3505102486
O       -1.8418115902    0.0154405794   -0.7108838008
H       -0.0201895440   -1.4009401914   -0.0646806507
H        1.3758843928    0.6140498170    0.0719536031
6    
torsion grid (75,)
O       -0.6399966928   -0.4248747094    1.7992081170
P       -0.3443882048   -0.3958739472    0.3203194683
O        0.8892696130    0.7371714516    0.0274392674
O       -1.3898161311   -0.1674618450   -0.7362039884
H        0.4127508152   -1.5737271879   -0.0060315304
H        1.7289084619    0.3476789521    0.3193302463
6    
torsion grid (90,)
O       -0.7115205264   -0.4274070984    1.8537463982
P       -0.3916185017   -0.3830356438    0.3813658442
O        0.8429843563    0.7604324928    0.1187490264
O       -1.4283297360   -0.1660218766   -0.6873192572
H        0.3890192103   -1.5472803599    0.0534153056
H        1.6961187985    0.3046336458    0.1903373414
6    
torsion grid (105,)
O       -0.8274324708   -0.4060199146    1.8555374555
P       -0.4427758601   -0.3535208310    0.4000245525
O        0.8223519689    0.7738251086    0.2149585151
O       -1.4300857477   -0.1262610793   -0.7136353537
H        0.3419211849   -1.5222104357    0.0927723034
H        1.6469173420    0.2816590138    0.0821837162
6    
torsion grid (120,)
O       -0.7823731935    0.0619640928    1.5801278201
P       -0.8124224922    0.1890332127    0.0803744839
O        0.5598489386    1.0809857224   -0.3957782560
O       -2.0032811932    0.6883769619   -0.6954470646
H       -0.3911695901   -1.0629288717   -0.4956841519
H        1.0894359450    0.5236346830   -0.9862197526
6    
torsion grid (135,)
O       -0.8032360583    0.0336871897    1.5477553467
P       -0.7674377360    0.1568976830    0.0488306389
O        0.6389909659    1.0310738872   -0.3492445165
O       -1.9137165393    0.6616166081   -0.7898624419
H       -0.3367757732   -1.1001000980   -0.5068227148
H        1.0711355798    0.5784011220   -1.0901648338
6    
torsion grid (150,)
O       -0.7481082992    0.0289094514    1.5979472132
P       -0.7271515276    0.1416868489    0.0986723514
O        0.6951180774    0.9821165442   -0.3045869543
O       -1.8630866374    0.6682338350   -0.7426851145
H       -0.3376775892   -1.1288343318   -0.4524717354
H        0.9831090877    0.6720358425   -1.1779647382
6    
torsion grid (165,)
O       -0.8082114766   -0.0165214250    1.6063844162
P       -0.6930073892    0.0971038349    0.1121253629
O        0.7776926411    0.8878948416   -0.1955695114
O       -1.7452220079    0.6735986160   -0.8040954604
H       -0.3291217140   -1.1887744627   -0.4149364993
H        0.9832161610    0.7581661346   -1.1356307180
6    
torsion grid (180,)
O       -0.5077420975    0.0527980684    1.8384565905
P       -0.5350356436    0.1046402634    0.3367736405
O        0.9144708077    0.8397494448   -0.1493530666
O       -1.6456713216    0.6888467035   -0.5049229499
H       -0.2720995549   -1.2141332218   -0.1622393199
H        0.8941812953    0.8719505679   -1.1197750907
