8    
torsion grid (-165,)
C       -0.8206857802   -0.6379085791    1.0610619133
N        1.8288815858    1.6733859693   -2.3987667349
N        0.9829844912    0.3174813066   -0.6246743783
N        1.3634061661    1.0311409003   -1.5677939066
S       -0.7554149540   -0.0520470060   -0.6529827660
H       -1.8504452867   -0.9682774011    1.2234454331
H       -0.5814182439    0.1677820314    1.7574869665
H       -0.1437081723   -1.4826074457    1.2023583020
8    
torsion grid (-150,)
C       -0.8142460623   -0.6158150058    1.0575663412
N        1.7922244518    1.7869808070   -2.2807724861
N        1.0012038325    0.1512883343   -0.7306602427
N        1.3499996227    1.0218833163   -1.5483799648
S       -0.7515871259   -0.1365360791   -0.6911998049
H       -1.8476550722   -0.9208352948    1.2457920289
H       -0.5563186200    0.2242441349    1.7049780772
H       -0.1500212205   -1.4622604370    1.2428108803
8    
torsion grid (-135,)
C       -0.8007907863   -0.5910988830    1.0463698881
N        1.7566343849    1.8765202764   -2.1274886548
N        1.0000723425    0.0041183000   -0.8502465415
N        1.3283264400    1.0065481941   -1.5161381961
S       -0.7560286576   -0.2289544592   -0.7332185289
H       -1.8351992180   -0.8712949912    1.2668955286
H       -0.5253086548    0.2851875599    1.6361700821
H       -0.1441060446   -1.4320762213    1.2777912515
8    
torsion grid (-120,)
C       -0.7805242493   -0.5616929749    1.0276182541
N        1.7257238662    1.9347553774   -1.9399333311
N        0.9755080584   -0.1230498346   -0.9817698457
N        1.2988964660    0.9806277102   -1.4727699414
S       -0.7750207003   -0.3193035656   -0.7754578524
H       -1.8084962778   -0.8313459091    1.2889628283
H       -0.4980452298    0.3520179620    1.5543046804
H       -0.1144421272   -1.3830589898    1.2991800369
8    
torsion grid (-105,)
C       -0.7546657052   -0.5294716975    1.0011397224
N        1.6912803319    1.9615969978   -1.7279359505
N        0.9387606046   -0.2242686331   -1.1139969744
N        1.2628944374    0.9468466293   -1.4198680827
S       -0.7972641027   -0.4178119851   -0.8167863095
H       -1.7742742877   -0.7831451262    1.3081676342
H       -0.4662841185    0.4211662515    1.4547777197
H       -0.0768473537   -1.3259626609    1.3146370700
8    
torsion grid (-90,)
C       -0.7247080157   -0.4935941794    0.9676342521
N        1.6589528512    1.9524504089   -1.4955388820
N        0.8878904548   -0.2987376639   -1.2451904468
N        1.2224132509    0.9045695121   -1.3596499981
S       -0.8255711524   -0.5139939608   -0.8530731874
H       -1.7285551851   -0.7451398494    1.3245545511
H       -0.4477290285    0.4936598046    1.3446607515
H       -0.0190933692   -1.2502642965    1.3167377886
8    
torsion grid (-75,)
C       -0.6903708154   -0.4596612046    0.9303347911
N        1.6199138436    1.9160069525   -1.2598229094
N        0.8295849095   -0.3398012890   -1.3694990489
N        1.1758927704    0.8626264740   -1.2974040785
S       -0.8495030552   -0.6158495106   -0.8800128554
H       -1.6786576454   -0.6963567197    1.3370678996
H       -0.4218802684    0.5580754845    1.2245349577
H        0.0386200669   -1.1760904114    1.3149360729
8    
torsion grid (-60,)
C       -0.6616651115   -0.4247083503    0.8946827088
N        1.6055180153    1.8452552984   -1.0412292595
N        0.7607727233   -0.3477615661   -1.4856058579
N        1.1394439947    0.8181523656   -1.2395209519
S       -0.8690579777   -0.7074701836   -0.8945128101
H       -1.6259077120   -0.6780888289    1.3460257827
H       -0.4367651147    0.6220963477    1.1153648909
H        0.1112609887   -1.0785253071    1.3049303261
8    
torsion grid (-45,)
C       -0.6426573435   -0.3945871800    0.8683809942
N        1.6276392131    1.7546060813   -0.8691023325
N        0.6822797028   -0.3185243821   -1.5901834896
N        1.1185412754    0.7797225470   -1.1955807703
S       -0.8781061027   -0.7860005764   -0.8954500100
H       -1.5761673859   -0.6924097965    1.3555482210
H       -0.4913771588    0.6754388617    1.0326624507
H        0.1834476057   -0.9692957794    1.2938597657
8    
torsion grid (-30,)
C       -0.6354584172   -0.3698452713    0.8513033994
N        1.6878858232    1.6518950129   -0.7482852113
N        0.5960764525   -0.2594693810   -1.6746685173
N        1.1147419674    0.7466498804   -1.1645827599
S       -0.8781034504   -0.8493542535   -0.8883609590
H       -1.5250611952   -0.7395115917    1.3701758240
H       -0.5867824629    0.7146701122    0.9758328974
H        0.2503010887   -0.8460847325    1.2787201556
8    
torsion grid (-15,)
C       -0.6365560350   -0.3515347209    0.8413678396
N        1.7665146216    1.5485825372   -0.6726478068
N        0.5090356625   -0.1797831078   -1.7351496205
N        1.1222275704    0.7193473825   -1.1442538819
S       -0.8643506051   -0.9023592612   -0.8782297073
H       -1.4745483468   -0.7971617795    1.3859117797
H       -0.6977015744    0.7350598145    0.9369430103
H        0.2989785129   -0.7232010891    1.2661932159
8    
torsion grid (0,)
C       -0.6455923080   -0.3365541493    0.8361078022
N        1.8584103243    1.4410131573   -0.6308679451
N        0.4239437631   -0.0876220372   -1.7714941591
N        1.1403785333    0.6935192285   -1.1331236006
S       -0.8397477629   -0.9427968914   -0.8685513472
H       -1.4190816453   -0.8632764109    1.4032470702
H       -0.8256306691    0.7383266117    0.9117145451
H        0.3309195705   -0.5936597330    1.2531024637
8    
torsion grid (15,)
C       -0.5581913047   -0.6188053460    0.7343340788
N        2.1210766272    0.3321153705   -1.1617774922
N        0.0259099327    1.4721712159   -1.0731558665
N        1.0876439978    0.8352701389   -1.0981612950
S       -1.3367877921    0.7139739456   -0.2298419384
H       -1.3862583472   -1.0858229404    1.2761900681
H        0.1615803569   -0.2286289556    1.4579416547
H       -0.0913736646   -1.3713236531    0.0946056197
8    
torsion grid (30,)
C       -0.5637437688   -0.6126199409    0.7547338240
N        2.0852308864    0.2775878488   -1.3027749006
N        0.0765681779    1.5230272700   -0.9595696091
N        1.0897351808    0.8269057067   -1.1339940617
S       -1.3246485629    0.6855446329   -0.2704774177
H       -1.4073198549   -1.1386028096    1.2118871206
H        0.0604062007   -0.1860723788    1.5437554736
H        0.0073715467   -1.3268205534    0.1565743999
8    
torsion grid (45,)
C       -0.5784196872   -0.6117283963    0.7820260987
N        2.0576216176    0.2636312258   -1.4706312485
N        0.1405167527    1.5448061119   -0.8422693129
N        1.1027318010    0.8280790938   -1.1777663888
S       -1.2960112671    0.6530552183   -0.3157377462
H       -1.4327695058   -1.1807582651    1.1611940194
H       -0.0514580226   -0.1529811482    1.6220469909
H        0.0813881174   -1.2951540645    0.2412724164
8    
torsion grid (60,)
C       -0.6042092156   -0.6189375707    0.8175650660
N        2.0478667656    0.3079539290   -1.6618140261
N        0.2157605679    1.5316124884   -0.7309609759
N        1.1306925188    0.8419913159   -1.2316109255
S       -1.2510787575    0.6105360019   -0.3631765636
H       -1.4716749465   -1.2050324340    1.1364191940
H       -0.1615471549   -0.1279627043    1.6871553722
H        0.1177900283   -1.2912112506    0.3465576880
8    
torsion grid (75,)
C       -0.6388475539   -0.6334719647    0.8614982673
N        2.0514339249    0.4106155853   -1.8679927338
N        0.3023346595    1.4835750609   -0.6372410399
N        1.1722750855    0.8681040097   -1.2970568204
S       -1.1884690707    0.5563725369   -0.4070691777
H       -1.5284092000   -1.2107535252    1.1327723938
H       -0.2665664924   -0.1090928084    1.7441378147
H        0.1198484530   -1.3163991188    0.4710861251
8    
torsion grid (90,)
C       -0.6776535888   -0.6531531812    0.9042620300
N        2.0618153358    0.5611593454   -2.0543201021
N        0.3920616906    1.4055058042   -0.5629870693
N        1.2211567671    0.9054504869   -1.3601713473
S       -1.1158784014    0.4834946344   -0.4527836428
H       -1.5956212483   -1.1993958396    1.1437014605
H       -0.3557026189   -0.0892001351    1.7821105531
H        0.0934218699   -1.3649113394    0.6003229469
8    
torsion grid (105,)
C       -0.7144325053   -0.6670887137    0.9463025386
N        2.0520535343    0.7204415426   -2.2249830511
N        0.4951237737    1.3000406997   -0.5041079721
N        1.2652916645    0.9378371001   -1.4238390636
S       -1.0393555617    0.4142773117   -0.4835980106
H       -1.6565423762   -1.1872517923    1.1464476288
H       -0.4425135385   -0.0686146151    1.8180801460
H        0.0639748152   -1.4006917574    0.7258326130
8    
torsion grid (120,)
C       -0.7468606407   -0.6769055377    0.9815882881
N        2.0311305493    0.8905335227   -2.3570132366
N        0.5971406471    1.1710735076   -0.4648257423
N        1.3023312036    0.9688176586   -1.4775214797
S       -0.9665611458    0.3357847350   -0.5137638834
H       -1.7115492344   -1.1631992479    1.1566070627
H       -0.5062193571   -0.0403736939    1.8353882950
H        0.0241877841   -1.4367811688    0.8396755253
8    
torsion grid (135,)
C       -0.7748665681   -0.6797367550    1.0109078938
N        1.9954648577    1.0587649963   -2.4539609707
N        0.7032111614    1.0204355865   -0.4443791318
N        1.3321786672    0.9932877381   -1.5212910096
S       -0.8997897687    0.2630455422   -0.5367642948
H       -1.7579717246   -1.1358054341    1.1614051378
H       -0.5585357942   -0.0098414110    1.8454514364
H       -0.0160910247   -1.4612004874    0.9387657680
8    
torsion grid (150,)
C       -0.7962016431   -0.6782139159    1.0326120011
N        1.9563687176    1.2274027858   -2.5035961194
N        0.7953214147    0.8553864432   -0.4499810324
N        1.3521874302    1.0149722395   -1.5511520464
S       -0.8444724739    0.1812089652   -0.5646502048
H       -1.7962278497   -1.0976050047    1.1755974112
H       -0.5844436071    0.0288414191    1.8371208128
H       -0.0589321826   -1.4830431565    1.0241840070
8    
torsion grid (165,)
C       -0.8112948248   -0.6695185526    1.0485660644
N        1.9117458419    1.3883865421   -2.5127104448
N        0.8778359812    0.6772601702   -0.4812788009
N        1.3643034486    1.0271307105   -1.5695953160
S       -0.8012684186    0.1045124996   -0.5904079799
H       -1.8246402483   -1.0560182983    1.1887871676
H       -0.5965452094    0.0703548668    1.8220324976
H       -0.0965367646   -1.4931581625    1.0947416411
8    
torsion grid (180,)
C       -0.8193899245   -0.6558517819    1.0583168915
N        1.8673829456    1.5381639462   -2.4782711423
N        0.9419764871    0.4955086082   -0.5400250145
N        1.3678076041    1.0325759634   -1.5753976618
S       -0.7710735431    0.0271112915   -0.6194499987
H       -1.8426498806   -1.0125543086    1.2046189743
H       -0.5950725724    0.1169087809    1.7959568354
H       -0.1253813103   -1.4929127239    1.1543859451
