23   
torsion grid (-165,)
C        2.6110561089   -4.2197227039   -0.8866949980
C        1.7148538394   -1.3095126793   -0.0268580780
C        0.6026633622   -0.7959605455    0.6366260765
C        1.7699070890   -1.0431204133    2.7506224053
C        2.8795502871   -1.6971436657    0.6505445092
C        2.8751583382   -1.5225242902    2.0434166440
C        0.6475768655   -0.6803029510    2.0230978099
C        3.6061866276   -3.2182252651   -1.2786962420
C        4.0500492226   -2.2934604986   -0.1190785599
N        1.8197938345   -5.0064501270   -0.5599456401
N        4.8381256904   -1.2013428162   -0.7163924930
N        4.0730258344   -1.8030855341    2.8569824862
O        3.9044483052   -2.2480064184    3.9932930419
O        5.1781279529   -1.5434656694    2.3593075931
F       -0.4276972421   -0.1941865588    2.6801171960
H        1.6709464513   -1.4133458551   -1.1051868718
H       -0.2915777167   -0.4981293408    0.0984052577
H        1.7969226329   -0.9464378638    3.8296227758
H        4.4902896818   -3.7470830221   -1.6523472002
H        3.2349034585   -2.6222747827   -2.1173834179
H        4.6501713797   -2.9080917930    0.5602015734
H        5.6672115666   -1.5942275471   -1.1640553506
H        5.1848813728   -0.6166068882    0.0437103107
23   
torsion grid (-150,)
C        3.0526925273   -4.2086109767   -0.0743200894
C        1.8794234191   -0.8114116098    0.0033484319
C        0.6995243261   -0.4348545134    0.6416544118
C        1.5474439635   -1.3611433939    2.7156610930
C        2.9130621768   -1.4829525462    0.6740895109
C        2.7095947546   -1.7473978245    2.0416890650
C        0.5535091040   -0.7193964253    1.9959334606
C        3.9312380563   -3.2886298235   -0.8004671709
C        4.1419508650   -1.8981938154   -0.1232601938
N        2.3225785705   -4.9282862741    0.4736299482
N        4.3844188190   -0.9308102794   -1.2118812961
N        3.7151099972   -2.4451997970    2.8703110459
O        3.6682597014   -2.2725152357    4.0915348256
O        4.5467375251   -3.1645600104    2.3038242053
F       -0.5843703037   -0.3575470072    2.6293610229
H        2.0239530363   -0.5866379824   -1.0475146495
H       -0.0986686231    0.0705693643    0.1067853393
H        1.4282934562   -1.5690620743    3.7717295450
H        4.8994698190   -3.7771030695   -0.9502840633
H        3.4944147157   -3.1147605252   -1.7897934095
H        5.0007304633   -1.9819884961    0.5430621168
H        5.1770474253   -1.2504781763   -1.7685561588
H        4.6649737607   -0.0370652110   -0.8087363227
23   
torsion grid (-135,)
C        2.9387359516   -4.1389100536   -0.1212870713
C        1.8698942290   -0.8077807308    0.0215735869
C        0.6966511928   -0.4330781103    0.6737718618
C        1.5686474295   -1.3583175483    2.7401463891
C        2.9115874279   -1.4761524102    0.6813563406
C        2.7211556124   -1.7427743486    2.0501381677
C        0.5676090625   -0.7165541342    2.0298954593
C        4.0128635261   -3.3300411861   -0.7026177424
C        4.1438863274   -1.8826921362   -0.1152761042
N        2.0680774347   -4.7672160093    0.3244571355
N        4.3289044123   -0.9631288666   -1.2546497949
N        3.7306497014   -2.4563483306    2.8553106842
O        3.7221514849   -2.2765227957    4.0760180784
O        4.5264877938   -3.2013722925    2.2685651561
F       -0.5633669352   -0.3554274073    2.6757291223
H        1.9981426155   -0.5902032449   -1.0327689179
H       -0.1097350317    0.0683133838    0.1474350664
H        1.4607571545   -1.5694246322    3.7969693040
H        4.9539680258   -3.8710580582   -0.5718649462
H        3.8215201608   -3.2450503005   -1.7773217018
H        5.0125668499   -1.8834331458    0.5459946173
H        5.1374805114   -1.2670232102   -1.7967309425
H        4.5592073811   -0.0341847625   -0.9018490104
23   
torsion grid (-120,)
C        2.8106491139   -4.0715814653   -0.2718199103
C        1.8459774134   -0.8387768427    0.0345914334
C        0.6772641465   -0.4549672358    0.6894140647
C        1.5693314195   -1.3336663553    2.7666056906
C        2.8965239662   -1.4890807201    0.6984405528
C        2.7158733137   -1.7293867827    2.0729802530
C        0.5603566377   -0.7089949964    2.0523513444
C        4.0535580224   -3.3741506669   -0.6143981009
C        4.1328362467   -1.8943718607   -0.0964272079
N        1.8184222931   -4.6142964452   -0.0021429669
N        4.2787661477   -1.0109853439   -1.2675414353
N        3.7300455007   -2.4321028685    2.8785897535
O        3.7554362207   -2.2124766569    4.0922354203
O        4.4944215744   -3.2140598611    2.2968393969
F       -0.5655648233   -0.3367833512    2.7006156872
H        1.9599158476   -0.6475046972   -1.0263459567
H       -0.1358406858    0.0307027604    0.1587604823
H        1.4715685448   -1.5237789329    3.8284841038
H        4.8841622939   -3.9567233946   -0.2111629874
H        4.1342223553   -3.3688197787   -1.7058139970
H        5.0013912823   -1.8431333973    0.5657623740
H        5.1069773108   -1.2896587887   -1.7924771291
H        4.4513007763   -0.0567188997   -0.9513574269
23   
torsion grid (-105,)
C        2.5411212100   -3.5993454725   -1.1751340161
C        2.1911939937   -0.5399180692   -0.1758933057
C        1.0663520302   -0.0179237082    0.4583682575
C        1.6639266434   -1.2211622243    2.4774004977
C        3.0733378420   -1.4217272310    0.4673863167
C        2.7677893857   -1.7488068633    1.8009231106
C        0.8228060685   -0.3680034085    1.7828978067
C        3.9722274243   -3.3173660976   -1.0138500747
C        4.2763886010   -1.9522309453   -0.3085051041
N        1.4052652989   -3.8142058215   -1.3004931836
N        4.6654574128   -0.9736777507   -1.3359894692
N        3.5943990506   -2.6850323869    2.5829212800
O        4.2199291153   -3.5609426157    1.9693615310
O        3.6068800988   -2.5547194427    3.8094403754
F       -0.2616238283    0.1360732687    2.4122915052
H        2.4007668342   -0.2775778592   -1.2064844776
H        0.3815593425    0.6461740801   -0.0597796336
H        1.4704366541   -1.4828478965    3.5105618169
H        4.4171287222   -4.1380116306   -0.4499875346
H        4.4003822827   -3.3014278716   -2.0209814560
H        5.0729725303   -2.1559220945    0.4136047376
H        5.4876660900   -1.3156906587   -1.8312908352
H        4.9420161018   -0.1005381595   -0.8878714428
23   
torsion grid (-90,)
C        2.5709242237   -3.4549821750   -1.4744326707
C        2.1527638059   -0.6171989642   -0.1687836849
C        1.0339697098   -0.0951989718    0.4756713696
C        1.7120230300   -1.2064004259    2.5218668038
C        3.0707316233   -1.4568400940    0.4821931556
C        2.8084419820   -1.7383340031    1.8355965660
C        0.8337138242   -0.3988057078    1.8188813568
C        3.9546078032   -3.3465735788   -0.9936039953
C        4.2681771108   -1.9820188961   -0.3080602733
N        1.4739562342   -3.5332911233   -1.8519681252
N        4.6365202790   -1.0071087576   -1.3426365595
N        3.6785679240   -2.6202970075    2.6344483638
O        4.2938000600   -3.5208629699    2.0460552603
O        3.7356871297   -2.4231775861    3.8506492336
F       -0.2437573508    0.1067339081    2.4591006509
H        2.3307072909   -0.3869630197   -1.2126935727
H        0.3215739572    0.5338045263   -0.0489544262
H        1.5533638660   -1.4289362165    3.5700464480
H        4.1501495653   -4.1654132754   -0.3005182141
H        4.5913143900   -3.4571029424   -1.8777767877
H        5.0662314730   -2.1897649466    0.4120107655
H        5.4512212383   -1.3442304848   -1.8529361194
H        4.9090881999   -0.1277888751   -0.9053765148
23   
torsion grid (-75,)
C        2.6122228789   -3.3492558209   -1.6672999778
C        2.1019074518   -0.6435845304   -0.1333007680
C        0.9937215375   -0.1099345984    0.5204963828
C        1.7240191490   -1.1551179668    2.5840906358
C        3.0385677730   -1.4592158908    0.5221950357
C        2.8072309112   -1.7019266057    1.8887298981
C        0.8251599190   -0.3743187278    1.8763745674
C        3.8872276468   -3.3599646475   -0.9382484468
C        4.2237423252   -1.9962438248   -0.2772460015
N        1.5976618651   -3.3365104075   -2.2350400316
N        4.5826086220   -1.0351034698   -1.3272623401
N        3.7003067978   -2.5549666118    2.6936454197
O        4.2884498074   -3.4849561736    2.1233655024
O        3.8015878022   -2.3051989337    3.8972105121
F       -0.2410712568    0.1441412314    2.5249801923
H        2.2589845209   -0.4384275694   -1.1856220102
H        0.2666379365    0.5002391844   -0.0062346046
H        1.5908123329   -1.3459257560    3.6421049515
H        3.8565181501   -4.1389080546   -0.1748764921
H        4.6689805887   -3.6096562330   -1.6643233351
H        5.0371160015   -2.2065103014    0.4249386267
H        5.3722692862   -1.3918121144   -1.8628487059
H        4.8847811285   -0.1585725802   -0.9048107977
23   
torsion grid (-60,)
C        2.7299101691   -3.2886809009   -1.8584078007
C        2.0661709111   -0.6747178092   -0.1167303136
C        0.9582005995   -0.1525274591    0.5473916006
C        1.7312143776   -1.1661573844    2.6121573824
C        3.0222317023   -1.4702578627    0.5355764667
C        2.8120483166   -1.7042360354    1.9068167397
C        0.8117852552   -0.4058954226    1.9080979751
C        3.8620871573   -3.3629096558   -0.9268044657
C        4.2027923814   -1.9998011458   -0.2731496136
N        1.8210673492   -3.2293883814   -2.5810070447
N        4.5459056615   -1.0372830498   -1.3290615656
N        3.7283221971   -2.5388622639    2.7044226600
O        4.3079747893   -3.4746439258    2.1348508620
O        3.8563829903   -2.2684490421    3.9008897413
F       -0.2529861493    0.1038444918    2.5660046822
H        2.2110504264   -0.4734754826   -1.1716519659
H        0.2156987435    0.4429848312    0.0253199622
H        1.6151763021   -1.3474819790    3.6739420869
H        3.6344934382   -4.0889782409   -0.1440102632
H        4.7376996619   -3.7338576965   -1.4714776301
H        5.0395305802   -2.2036163816    0.4023673170
H        5.2972219759   -1.4129798891   -1.9056008476
H        4.8966698226   -0.1771862705   -0.9105598670
23   
torsion grid (-45,)
C        2.8798101984   -3.2702358659   -2.0138111233
C        2.0328879832   -0.6946153067   -0.0957662649
C        0.9265470100   -0.1789315310    0.5767885685
C        1.7321090743   -1.1687338854    2.6413394403
C        3.0031444298   -1.4750745040    0.5534408991
C        2.8094998247   -1.7025260554    1.9277231565
C        0.7981415489   -0.4220808480    1.9414333285
C        3.8353924251   -3.3702833678   -0.9049566614
C        4.1786088510   -2.0005762192   -0.2626288833
N        2.1063546862   -3.1988374031   -2.8788866328
N        4.5044312440   -1.0379253791   -1.3264327523
N        3.7395426445   -2.5307523500    2.7154737506
O        4.3104475725   -3.4680278384    2.1395553289
O        3.8827436976   -2.2572252790    3.9094993830
F       -0.2638504823    0.0836557284    2.6070657599
H        2.1690008442   -0.4977200211   -1.1529804642
H        0.1727217485    0.4061996776    0.0591122159
H        1.6292017617   -1.3433391868    3.7056697486
H        3.4161206541   -4.0255815956   -0.1382722447
H        4.7539906462   -3.8596525510   -1.2465530941
H        5.0381259888   -2.1893769002    0.3869384620
H        5.2134348981   -1.4311807436   -1.9434506802
H        4.9031901239   -0.1947970956   -0.9165760360
23   
torsion grid (-30,)
C        3.0464937712   -3.3016269352   -2.1674003873
C        2.0116354173   -0.6758984626   -0.0695031232
C        0.9250373488   -0.1581254167    0.6334243150
C        1.7794391967   -1.1600355494    2.6732017462
C        2.9942887398   -1.4630416386    0.5515177448
C        2.8347914380   -1.6960955124    1.9289914866
C        0.8315740914   -0.4059492069    2.0003455686
C        3.7880606361   -3.3804922543   -0.9045994590
C        4.1459565952   -1.9930236474   -0.2946247036
N        2.4527739933   -3.2582851230   -3.1661550138
N        4.4338946216   -1.0365483241   -1.3760449460
N        3.7802648390   -2.5362897533    2.6843402106
O        4.3344956876   -3.4674447529    2.0826481028
O        3.9531523549   -2.2779076295    3.8777693617
F       -0.2102028146    0.1026898122    2.6950960386
H        2.1257543329   -0.4738200350   -1.1286669449
H        0.1612713121    0.4340444511    0.1386912177
H        1.7036101202   -1.3384713713    3.7392131782
H        3.1826412660   -3.9391228495   -0.1872567744
H        4.6951483668   -3.9796265319   -1.0321989616
H        5.0324435717   -2.1620163610    0.3221788644
H        5.0793271989   -1.4494574776   -2.0472956502
H        4.8922407485   -0.2125348954   -0.9904793937
23   
torsion grid (-15,)
C        3.2761537578   -3.3867580289   -2.3044476606
C        1.9700834766   -0.6132709505   -0.0564053530
C        0.9101966567   -0.0818082125    0.6768189332
C        1.7887675507   -1.1257475918    2.6839099016
C        2.9500708186   -1.4276233676    0.5322800955
C        2.8167355531   -1.6735622704    1.9103188999
C        0.8413589604   -0.3442011077    2.0425763301
C        3.7064966530   -3.3848715694   -0.9026871438
C        4.0773582819   -1.9697277067   -0.3417857643
N        2.9494979121   -3.4088730961   -3.4203098246
N        4.3276120516   -1.0277255083   -1.4427982651
N        3.7620607209   -2.5421908456    2.6326841865
O        4.2911841797   -3.4687568699    2.0021451607
O        3.9588272447   -2.3115994356    3.8280186141
F       -0.1742880971    0.1768644075    2.7662625538
H        2.0664898693   -0.4000510041   -1.1152597169
H        0.1488555796    0.5332240608    0.2067891558
H        1.7334495048   -1.3161408383    3.7490978053
H        2.9029101234   -3.8185802138   -0.3038211202
H        4.5519961889   -4.0668491416   -0.7796270774
H        4.9763006765   -2.1166092096    0.2626642626
H        4.9343436950   -1.4490803508   -2.1436727790
H        4.8098376841   -0.2054272633   -1.0838027064
23   
torsion grid (0,)
C        3.5677767451   -3.4957446631   -2.3686984116
C        1.9374858009   -0.6034087897   -0.0123631428
C        0.9053972899   -0.0651926033    0.7545810665
C        1.8364610377   -1.1228368562    2.7294293723
C        2.9295210601   -1.4281784237    0.5413648100
C        2.8358423320   -1.6758950645    1.9223190405
C        0.8759285468   -0.3316008850    2.1210285471
C        3.6232103890   -3.3961551669   -0.9065580325
C        4.0283889241   -1.9731924728   -0.3722102148
N        3.5527224268   -3.5871228384   -3.5281634416
N        4.2389383728   -1.0299446442   -1.4762543204
N        3.7951871637   -2.5529921948    2.6156617564
O        4.2989986826   -3.4818430006    1.9686969581
O        4.0283543302   -2.3254702230    3.8049417736
F       -0.1127970187    0.1950219241    2.8771915756
H        2.0027354500   -0.3856910783   -1.0726842993
H        0.1361353225    0.5589911899    0.3101796643
H        1.8132351078   -1.3166923836    3.7951627492
H        2.6480858660   -3.6900528104   -0.5123106056
H        4.3392614782   -4.1368722560   -0.5453781999
H        4.9327132894   -2.1209380865    0.2250411356
H        4.8384211729   -1.4382301533   -2.1907753381
H        4.7097981472   -0.1974614560   -1.1260506569
23   
torsion grid (15,)
C        3.8156794416   -3.5749504937   -2.3675205181
C        1.8864306119   -0.6049563903    0.0165295332
C        0.8763585327   -0.0580110751    0.8053594045
C        1.8557922089   -1.1077843201    2.7610757439
C        2.8907459056   -1.4309320489    0.5477491828
C        2.8335632521   -1.6685582650    1.9323395628
C        0.8816632972   -0.3181671714    2.1734608055
C        3.4811569180   -3.3708535863   -0.9531935288
C        3.9604684325   -1.9821128215   -0.4000058496
N        4.1139139016   -3.7316252759   -3.4809737191
N        4.1711851109   -1.0215782774   -1.4855375764
N        3.8110130098   -2.5369619587    2.6139078598
O        4.2979979767   -3.4774740283    1.9717064398
O        4.0753173103   -2.2883552111    3.7924427605
F       -0.0860573487    0.2144833219    2.9519157582
H        1.9252253349   -0.3908264391   -1.0459310117
H        0.0987763697    0.5674847519    0.3775417423
H        1.8598625213   -1.2943228795    3.8283209810
H        2.4020331829   -3.4927818751   -0.8361884433
H        3.9820026807   -4.1638892185   -0.3954389674
H        4.8553554501   -2.1782957333    0.1982540580
H        4.7907327590   -1.4122225489   -2.1933004317
H        4.6216318480   -0.1857424592   -1.1171241710
23   
torsion grid (30,)
C        4.6101158925   -4.2379663504   -1.6360153541
C        1.8828634653   -1.1090097871   -0.1441105724
C        0.7676883804   -0.5575453183    0.4830503435
C        1.7801669823   -1.0027178240    2.6418509827
C        2.9629227542   -1.6442910001    0.5774753962
C        2.8685829676   -1.5797522751    1.9788089790
C        0.7369693007   -0.5120188401    1.8745805804
C        3.8543863896   -3.7347277555   -0.4812686111
C        4.1438380064   -2.2261027574   -0.2051717101
N        5.2332259824   -4.6061876488   -2.5467511658
N        4.2933834451   -1.4911883957   -1.4629692088
N        3.9236565214   -2.1179616646    2.8583545161
O        4.5638787896   -3.1012481707    2.4621584445
O        4.0960848074   -1.5676011925    3.9482766393
F       -0.3349949269    0.0276833941    2.4954155121
H        1.9465499983   -1.1255705712   -1.2267527870
H       -0.0652633033   -0.1595182901   -0.0884408749
H        1.7548693208   -0.9491414377    3.7236744946
H        2.7905385753   -3.9063725255   -0.6614464529
H        4.1792791311   -4.3162842682    0.3834855047
H        5.0198312565   -2.1872413745    0.4499083018
H        5.0242313232   -1.9161540361   -2.0319860317
H        4.5843795532   -0.5349765216   -1.2669128692
23   
torsion grid (45,)
C        4.7463877388   -4.2780069539   -1.4892802170
C        1.8525062000   -1.0896499811   -0.1221551755
C        0.7521231928   -0.5331884531    0.5267464202
C        1.7943206902   -1.0017990303    2.6660504959
C        2.9392524285   -1.6387100313    0.5783632518
C        2.8667112380   -1.5830942961    1.9815804902
C        0.7433110946   -0.4967201200    1.9187193021
C        3.7952802066   -3.7170012945   -0.5207947856
C        4.1022454697   -2.2230574473   -0.2249632756
N        5.5181438164   -4.6779518459   -2.2623779284
N        4.2402411885   -1.4882264756   -1.4865438710
N        3.9315265975   -2.1356057971    2.8403052514
O        4.5587455963   -3.1202090022    2.4272175931
O        4.1247372360   -1.5938101768    3.9309734680
F       -0.3136507069    0.0483838991    2.5601608583
H        1.8992461411   -1.0977766488   -1.2057467837
H       -0.0861325318   -0.1239180753   -0.0287676883
H        1.7868931034   -0.9553870716    3.7484911569
H        2.7837731483   -3.8277148726   -0.9209499592
H        3.8884629289   -4.2876414407    0.4050989266
H        4.9985885586   -2.1994698282    0.4029488397
H        4.9664770513   -1.9200489642   -2.0571590692
H        4.5438276036   -0.5348487271   -1.2950263644
23   
torsion grid (60,)
C        4.8567065362   -4.3120977367   -1.3472678934
C        1.8275110699   -1.0768000613   -0.1165227815
C        0.7390648334   -0.5213059076    0.5536498563
C        1.8154930916   -1.0069661834    2.6729355265
C        2.9234316853   -1.6329965615    0.5630928885
C        2.8740307239   -1.5876133995    1.9677714942
C        0.7542913264   -0.4931625162    1.9455440218
C        3.7709658516   -3.7003311927   -0.5722059454
C        4.0721920936   -2.2124497874   -0.2583616000
N        5.7330701320   -4.7471125717   -1.9764482058
N        4.1894275378   -1.4787146473   -1.5269885930
N        3.9493270197   -2.1549276068    2.8030716045
O        4.5576731178   -3.1424272556    2.3700646637
O        4.1665012110   -1.6233190973    3.8943910000
F       -0.2891855001    0.0526731739    2.6079851207
H        1.8571153390   -1.0768241308   -1.2006978446
H       -0.1070151092   -0.1060353263    0.0147081165
H        1.8258080593   -0.9674303956    3.7556631909
H        2.8464449862   -3.7694241218   -1.1539030346
H        3.6429123832   -4.2538281170    0.3594999749
H        4.9929503719   -2.1856882266    0.3325559382
H        4.9101737770   -1.9149904012   -2.1020391904
H        4.5040188973   -0.5273228327   -1.3417579080
23   
torsion grid (75,)
C        4.9391146374   -4.3593165184   -1.1560931716
C        1.8117720341   -1.0543060616   -0.1030671842
C        0.7332427716   -0.5038669406    0.5877000359
C        1.8306099524   -1.0230522922    2.6884816260
C        2.9114357284   -1.6240574981    0.5582285899
C        2.8784026386   -1.5983904059    1.9640425714
C        0.7636149904   -0.4948440467    1.9793862421
C        3.7596143499   -3.6895126081   -0.5998535599
C        4.0481651386   -2.2001433820   -0.2775399169
N        5.8908250190   -4.8403448401   -1.6206437615
N        4.1438270234   -1.4720350865   -1.5553465755
N        3.9598860016   -2.1866334370    2.7763806625
O        4.5575155218   -3.1682588185    2.3169061370
O        4.1915081420   -1.6774524879    3.8756012377
F       -0.2704538344    0.0461347864    2.6604078438
H        1.8291443487   -1.0403608290   -1.1873286336
H       -0.1171014793   -0.0777891692    0.0641581878
H        1.8530320181   -0.9985385630    3.7714957777
H        2.9554008112   -3.7316951983   -1.3426236709
H        3.4143867141   -4.2150920550    0.2914024933
H        4.9893932699   -2.1595496974    0.2783283776
H        4.8541329815   -1.9175968311   -2.1368385984
H        4.4738499530   -0.5235521973   -1.3803438138
23   
torsion grid (90,)
C        5.0033918587   -4.3957499995   -0.9290347383
C        1.7923041221   -1.0196315857   -0.1007644649
C        0.7212776902   -0.4816327248    0.6118319830
C        1.8377446153   -1.0488412128    2.6903631043
C        2.8971656750   -1.6050373716    0.5370791642
C        2.8774717991   -1.6094447024    1.9436552640
C        0.7650931758   -0.5033450850    2.0028247443
C        3.7661930698   -3.6708414910   -0.6311486482
C        4.0246401581   -2.1700867286   -0.3164575094
N        6.0017158701   -4.9296759050   -1.1954078986
N        4.0835985110   -1.4514650574   -1.6049461387
N        3.9658954636   -2.2189044651    2.7302903442
O        4.5695837577   -3.1767902343    2.2310872580
O        4.1970115385   -1.7500880804    3.8476267370
F       -0.2615862784    0.0238030785    2.7056637243
H        1.7974939846   -0.9860109851   -1.1845731050
H       -0.1331877817   -0.0430056319    0.1056075794
H        1.8706111211   -1.0484330497    3.7733822824
H        3.1181098757   -3.7173108853   -1.5141793572
H        3.2207246274   -4.1575642614    0.1782135539
H        4.9814885759   -2.0988819035    0.2076533368
H        4.7832078751   -1.9004362898   -2.1967649959
H        4.4179529028   -0.5012540364   -1.4461786826
23   
torsion grid (105,)
C        5.0068147277   -4.4250208295   -0.6658355318
C        1.7764465453   -0.9838997159   -0.0560671560
C        0.7217819761   -0.4522455276    0.6853211226
C        1.8817615582   -1.0458969187    2.7322774656
C        2.8947604542   -1.5771008753    0.5507476984
C        2.9046057321   -1.5987862352    1.9572314348
C        0.7958885605   -0.4898919142    2.0745200520
C        3.7692842307   -3.6439738445   -0.6415869421
C        4.0046855929   -2.1326379346   -0.3323319018
N        6.0077503632   -5.0140501988   -0.7237861655
N        4.0151611074   -1.4150582038   -1.6248907354
N        4.0074840034   -2.2220583380    2.7114883169
O        4.6034836096   -3.1667974688    2.1800370386
O        4.2583707499   -1.7765396927    3.8342847554
F       -0.2140983571    0.0313545710    2.8054562017
H        1.7557538411   -0.9410039828   -1.1392364557
H       -0.1428406200   -0.0071924249    0.2024444992
H        1.9376590341   -1.0595547397    3.8142533698
H        3.3063324625   -3.7065795758   -1.6334618488
H        3.0456458351   -4.0865208556    0.0448496746
H        4.9763764273   -2.0368185211    0.1589413177
H        4.7155477788   -1.8464933187   -2.2285300403
H        4.3290376382   -0.4562198371   -1.4739760397
23   
torsion grid (120,)
C        4.9093520061   -4.4975509021   -0.4861494443
C        1.7582528970   -1.0225590063   -0.0660913322
C        0.7027704382   -0.5102582677    0.6871730514
C        1.9010223538   -1.0700281900    2.7200516381
C        2.8973564551   -1.5901662047    0.5280282844
C        2.9243395391   -1.6054675937    1.9331310026
C        0.7948139708   -0.5394834865    2.0757400339
C        3.7658751754   -3.6220274021   -0.7472628820
C        4.0060313239   -2.1205645204   -0.3737964535
N        5.8341418337   -5.1852500985   -0.3325426565
N        4.0107654341   -1.3481324926   -1.6350760672
N        4.0459444488   -2.2089184625    2.6740938725
O        4.6245690270   -3.1676383652    2.1500494745
O        4.3238146633   -1.7362491275    3.7795520804
F       -0.2167313662   -0.0364360303    2.8173576316
H        1.7215038227   -0.9820699837   -1.1490289393
H       -0.1771751825   -0.0855838537    0.2137668761
H        1.9718883199   -1.0793312063    3.8012525078
H        3.5534685778   -3.6642761732   -1.8213352654
H        2.8665689601   -4.0129595025   -0.2662323348
H        4.9767487268   -2.0468574277    0.1225781513
H        4.7470216904   -1.7157606848   -2.2377324840
H        4.2675786365   -0.3811070834   -1.4356637321
23   
torsion grid (135,)
C        5.5547238546   -0.9995353890   -1.5367087610
C        1.9489310782   -1.2427364099   -0.2339699131
C        0.8290183731   -0.6033201499    0.3016317594
C        1.7059081436   -0.9990113896    2.5337804046
C        2.9789745656   -1.7473546581    0.5707156308
C        2.8256671718   -1.5941142477    1.9571008678
C        0.7266720194   -0.4983191922    1.6840244155
C        5.4132640045   -1.5519961712   -0.1846127006
C        4.1488870490   -2.4681717238   -0.0822428464
N        5.6271274009   -0.5751718460   -2.6173776913
N        4.4730781742   -3.6763271356    0.6810909945
N        3.8715052141   -2.0237037490    2.9116154718
O        3.5312559551   -2.7894728410    3.8124420670
O        4.9925641340   -1.5286447267    2.7760929941
F       -0.3576515802    0.1002569918    2.2244530270
H        2.0261267072   -1.3566240168   -1.3118321506
H        0.0423163452   -0.2068606011   -0.3322358990
H        1.6038188403   -0.9189596341    3.6105986825
H        6.3138886560   -2.1194156454    0.0671313018
H        5.3531186290   -0.7218320149    0.5195221815
H        3.8238021398   -2.6822894436   -1.1094500375
H        5.2660469888   -4.1590626235    0.2623137389
H        3.6846037903   -4.3209877391    0.6590957804
23   
torsion grid (150,)
C        5.3280255606   -0.8178244676   -1.4496708319
C        1.9936405255   -1.2714471907   -0.2652022148
C        0.8839714665   -0.5976815380    0.2478529683
C        1.7292246071   -0.9721257011    2.4954485480
C        3.0038885360   -1.7869669118    0.5582226527
C        2.8396835831   -1.6031470994    1.9391538429
C        0.7699115286   -0.4655358109    1.6269933261
C        5.4195240338   -1.6143538488   -0.2196868260
C        4.1696819317   -2.5346148064   -0.0749374108
N        5.2095412688   -0.2035672829   -2.4302249903
N        4.5134836750   -3.7043882498    0.7326189579
N        3.8623332487   -2.0407773213    2.9163223858
O        3.5045732930   -2.8325522000    3.7871892166
O        4.9792337962   -1.5259724920    2.8298004745
F       -0.3060617362    0.1664670415    2.1457981945
H        2.0812502433   -1.4005353318   -1.3403491027
H        0.1143028538   -0.1928335297   -0.4013643893
H        1.6187591871   -0.8691484842    3.5695874575
H        6.3348329836   -2.2133709043   -0.2543057165
H        5.4917990851   -0.9283140453    0.6251097491
H        3.8339366714   -2.7807451061   -1.0926176617
H        5.3023623810   -4.2028096729    0.3253188192
H        3.7281914172   -4.3523537729    0.7600404972
23   
torsion grid (165,)
C        3.3143376081   -4.5303864139   -0.3120715905
C        2.0030064950   -0.8867939716   -0.0595114921
C        0.8965687014   -0.3984790013    0.6319157501
C        1.7785479958   -1.3610482333    2.6793248127
C        3.0295637268   -1.6027589330    0.5769130943
C        2.8905858366   -1.8043547415    1.9583685219
C        0.8006329477   -0.6545377148    1.9972562399
C        3.5846308860   -3.3504096333   -1.1435614110
C        4.1446315327   -2.1827188845   -0.2877140901
N        3.1016289533   -5.4407087268    0.3791921114
N        4.6366685032   -1.1447180521   -1.2059884750
N        3.9332036935   -2.4713229130    2.7700002849
O        3.5565516058   -3.1841077392    3.7000390203
O        5.1161401376   -2.2350901225    2.4935227757
F       -0.2717970266   -0.1974499066    2.6805973961
H        2.0945917504   -0.7044057509   -1.1256067841
H        0.1147188213    0.1642605282    0.1314230914
H        1.6911970303   -1.5554957129    3.7418241179
H        4.3015093028   -3.6249741208   -1.9242204045
H        2.6456294582   -3.0593954290   -1.6219240291
H        4.9125499456   -2.5904891793    0.3703618182
H        5.4378960099   -1.5047325091   -1.7238719572
H        4.9801887660   -0.3553302813   -0.6599077700
23   
torsion grid (180,)
C        2.7513706264   -4.3211011291   -0.8425445875
C        1.7281592280   -1.2504712601   -0.0479530029
C        0.6253551797   -0.7205072878    0.6196220127
C        1.7740997491   -1.0317600438    2.7321681442
C        2.8806896371   -1.6790911838    0.6250636352
C        2.8702853025   -1.5253121443    2.0210109886
C        0.6632724509   -0.6292931069    2.0077720780
C        3.5815458267   -3.2028797561   -1.3034306826
C        4.0469579376   -2.2971089989   -0.1404276453
N        2.0894022625   -5.1960317855   -0.4578133881
N        4.8724708292   -1.2250390883   -0.7141975970
N        4.0572618397   -1.8440272707    2.8374295126
O        3.8720313139   -2.3082286959    3.9631429289
O        5.1699262484   -1.5919748699    2.3534130610
F       -0.4034573167   -0.1290260512    2.6680470512
H        1.6847516678   -1.3296841261   -1.1280907059
H       -0.2574450770   -0.3900681641    0.0815222941
H        1.7990950835   -0.9544429337    3.8128015685
H        4.4635569777   -3.6104602555   -1.8090427664
H        3.0225286582   -2.6307376523   -2.0476515423
H        4.5944580169   -2.9440123985    0.5544324381
H        5.7021021619   -1.6340564151   -1.1451007964
H        5.2129563910   -0.6461737228    0.0528230577
