17   
torsion grid (-165,)
C        0.7071597095    0.3327295625   -2.0211104390
C        2.2588526283   -0.6147118888   -0.0734566070
C        1.2949357169   -1.7019355360   -0.4901814930
C        0.9136238272   -0.2424155399   -0.6459556569
C        1.4406651992    0.5719511826   -4.4450480539
C        1.8540838518    0.2143097898   -3.0175910651
O       -0.3544217896    0.8570897035   -2.3110649275
F       -0.0112618683    0.2120898924    0.2660123351
H        2.3718916753   -0.4301859287    0.9899628514
H        3.1472204879   -0.4380728938   -0.6702714190
H        1.5016789251   -2.2846476479   -1.3819654693
H        0.7603148603   -2.2277453421    0.2942670042
H        2.2999167471    0.5012949605   -5.1188821111
H        1.0417136078    1.5877415157   -4.4917097199
H        0.6597131378   -0.1025729081   -4.8072564684
H        2.6524319864    0.8835908638   -2.6687897030
H        2.2812797162   -0.7949657804   -2.9765258023
17   
torsion grid (-150,)
C        0.7234936983    0.3583081897   -2.0120835792
C        2.2364382687   -0.5633134757   -0.0411660639
C        1.3667372246   -1.7128571332   -0.4975853619
C        0.8868486036   -0.2867106409   -0.6636940893
C        1.4170318775    0.5779961693   -4.4488860982
C        1.8319523594    0.1536911069   -3.0394841028
O       -0.2588836673    1.0405320629   -2.2479797927
F       -0.0936122485    0.0930513814    0.2238623694
H        2.2950564491   -0.3727037959    1.0254932851
H        3.1293150099   -0.3203549842   -0.6071234605
H        1.6492147102   -2.2778685589   -1.3793642300
H        0.8425651971   -2.2776421750    0.2665214878
H        2.2513938879    0.4500480081   -5.1451538875
H        1.1049834760    1.6245184511   -4.4638512172
H        0.5738014044   -0.0203124678   -4.8056269307
H        2.6940249555    0.7460061749   -2.7038225449
H        2.1694372124   -0.8888443076   -3.0296225284
17   
torsion grid (-135,)
C        0.6291467248    0.2055173647   -2.0668382961
C        2.1923436299   -0.3254012692   -0.0058499357
C        1.5894447311   -1.6458050138   -0.4288132068
C        0.8413956693   -0.3586481829   -0.6891470011
C        1.5147067280    0.7264915439   -4.3931909565
C        1.6471603901   -0.1480797684   -3.1458328619
O       -0.3431131450    0.9034810222   -2.2983922854
F       -0.2279630664   -0.1285455849    0.1454765500
H        2.1572916422   -0.0741625442    1.0492599667
H        3.0446569468    0.0699867526   -0.5480344026
H        2.0194982244   -2.1768797381   -1.2711757232
H        1.1638483778   -2.2725891989    0.3480844564
H        2.2344046253    0.4128432057   -5.1554133098
H        1.6987576294    1.7781306912   -4.1554811126
H        0.5081853368    0.6571758069   -4.8114307458
H        2.6635147011   -0.0961825469   -2.7391594519
H        1.4865192732   -1.2037885352   -3.4036284287
17   
torsion grid (-120,)
C        0.6550861879    0.2401140029   -2.0542469115
C        2.1484938288   -0.2843169443    0.0267937401
C        1.6514618754   -1.6386697208   -0.4389017009
C        0.8288929597   -0.4057385313   -0.7049199172
C        1.5141714316    0.7086672510   -4.4028616788
C        1.6048772659   -0.1854183085   -3.1665805742
O       -0.2052242187    1.0873823101   -2.2192248687
F       -0.2839944427   -0.2596759132    0.0940070522
H        2.0624717802   -0.0525532297    1.0833603829
H        2.9868659882    0.1779207261   -0.4844215374
H        2.1495250738   -2.1265117779   -1.2699151761
H        1.2477828191   -2.3057001470    0.3158362536
H        2.1908210093    0.3483175035   -5.1836598381
H        1.7826702062    1.7407078131   -4.1604526703
H        0.4966402683    0.7212299882   -4.8001202952
H        2.6320827083   -0.2173784488   -2.7824941934
H        1.3571736776   -1.2248325683   -3.4217648119
17   
torsion grid (-105,)
C        0.7180649135    0.2888840609   -2.0431204357
C        2.0961510519   -0.2600341351    0.0952601367
C        1.7050325651   -1.6283820162   -0.4404111079
C        0.8386312070   -0.4350321476   -0.7222425120
C        1.4917330549    0.6828248967   -4.4351261278
C        1.5738791754   -0.2085848943   -3.1971917230
O        0.0002406684    1.2691967935   -2.1318141707
F       -0.3311026021   -0.3724559069    0.0087960969
H        1.9343224886   -0.0639903380    1.1501939663
H        2.9383713361    0.2586932324   -0.3525798386
H        2.2851872984   -2.0615471536   -1.2483563269
H        1.2959048358   -2.3415083014    0.2678810271
H        2.1153330525    0.2786760984   -5.2382869075
H        1.8296204720    1.6979195737   -4.2096477042
H        0.4625924459    0.7550506109   -4.7953976658
H        2.6125215155   -0.3020461913   -2.8521777286
H        1.2533149399   -1.2341201772   -3.4253457235
17   
torsion grid (-90,)
C        0.8224370803    0.3436555279   -2.0329046712
C        2.0298147150   -0.2426957067    0.2057361884
C        1.7812416855   -1.6040442959   -0.4366517391
C        0.8772134636   -0.4475098023   -0.7366175758
C        1.4461651475    0.6593272438   -4.4806442879
C        1.5368213584   -0.2302441014   -3.2424368072
O        0.2610505288    1.4242726117   -2.0484330976
F       -0.3674106295   -0.4958633803   -0.1308271245
H        1.7632582683   -0.1213086570    1.2507860244
H        2.8759015538    0.3491977699   -0.1309756127
H        2.4651392840   -1.9543830829   -1.2029156673
H        1.3589991718   -2.3806028301    0.1930645715
H        1.9748303688    0.1996328594   -5.3211163658
H        1.8847193922    1.6422494269   -4.2891734967
H        0.4042912976    0.8187738103   -4.7702298335
H        2.5856255968   -0.4080955796   -2.9659356217
H        1.1197001359   -1.2288178086   -3.4302916283
17   
torsion grid (-75,)
C        0.9705530489    0.3995143534   -2.0266525795
C        1.9388735589   -0.2307924493    0.3397533563
C        1.8829195735   -1.5555681180   -0.4211306825
C        0.9394919814   -0.4413872727   -0.7519651670
C        1.3943271352    0.6346895771   -4.5273845006
C        1.4839401221   -0.2578393556   -3.2915800433
O        0.5772827684    1.5512073021   -1.9882397704
F       -0.3749329901   -0.6250092062   -0.3418340501
H        1.5446311570   -0.2176797476    1.3511074498
H        2.7675300200    0.4467565136    0.1564839502
H        2.6840541578   -1.7930600725   -1.1143398516
H        1.4567476224   -2.4084762146    0.0977620087
H        1.7791647128    0.1102149295   -5.4071677907
H        1.9717387117    1.5527514093   -4.3897628326
H        0.3591669632    0.9271776434   -4.7224245248
H        2.5202225650   -0.5748489785   -3.1097107848
H        0.9240873106   -1.1941063085   -3.4224809321
17   
torsion grid (-60,)
C        0.6403591405    0.4770254243   -1.9974325210
C        0.3864554238    0.4782057768    0.6375074791
C        1.8210762708    0.0317752115    0.3530147531
C        0.7248826560   -0.2159595720   -0.6366259141
C        1.7078553033    1.0503149161   -4.2399426046
C        1.9028413210    0.4876592635   -2.8339089372
O       -0.4228767484    0.9259016238   -2.3857721483
F        0.3082553200   -1.5367709502   -0.7702386166
H       -0.1762535973   -0.0950433073    1.3678024943
H        0.1416023511    1.5350286806    0.5912667489
H        2.5677313230    0.7887899589    0.1303911817
H        2.1897527644   -0.8310154112    0.8994004093
H        2.6503089675    1.0287457288   -4.7953907832
H        1.3508836871    2.0830445008   -4.2022517268
H        0.9654958930    0.4688457750   -4.7932333265
H        2.6659319566    1.0530004158   -2.2820520669
H        2.2816905375   -0.5435707535   -2.8554495654
17   
torsion grid (-45,)
C        0.6944620153    0.5657607337   -1.9614641817
C        0.3161280349    0.3973320541    0.6511906958
C        1.8001894312    0.1452065561    0.3967803334
C        0.7679595646   -0.1923438870   -0.6387311090
C        1.7051584806    1.0288958260   -4.2569162243
C        1.8933106350    0.4078636114   -2.8745198003
O       -0.3050108531    1.1913756398   -2.2671819043
F        0.5331094791   -1.5460241214   -0.8580885692
H       -0.1879790031   -0.2682246271    1.3448981181
H       -0.0602831121    1.4153505239    0.6285043265
H        2.4533252475    0.9965645247    0.2246172555
H        2.2583416773   -0.6903893161    0.9176476331
H        2.6017069216    0.8832734272   -4.8670527906
H        1.5075125321    2.1015311349   -4.1814626105
H        0.8559499821    0.5762602132   -4.7760959863
H        2.7607416160    0.8401957447   -2.3576320950
H        2.1113699207   -0.6666507565   -2.9374082354
17   
torsion grid (-30,)
C        0.7576743287    0.5985888013   -1.9337961870
C        0.2607754718    0.3285175143    0.6434372123
C        1.7684549539    0.2659745599    0.4442581222
C        0.8219080560   -0.1895790848   -0.6356731339
C        1.7018530418    1.0348835376   -4.2609783254
C        1.8668522566    0.3104123569   -2.9265466200
O       -0.1563436095    1.3747944424   -2.1545202436
F        0.7754008796   -1.5593700278   -0.8691732688
H       -0.1824167281   -0.4008443773    1.3139313832
H       -0.2374716370    1.2919368783    0.6035298662
H        2.3174182184    1.1922552338    0.2969764291
H        2.3095174893   -0.5164776317    0.9684371378
H        2.5298293988    0.7899277218   -4.9330924682
H        1.6785044658    2.1187944355   -4.1200189336
H        0.7654693329    0.7488765335   -4.7477796895
H        2.8164859384    0.5750888569   -2.4418950816
H        1.9120807122   -0.7778024689   -3.0600113433
17   
torsion grid (-15,)
C        0.8159743638    0.5928812929   -1.9146390293
C        0.2211858517    0.2631034021    0.6263901350
C        1.7245183691    0.4063916696    0.4897091041
C        0.8945952782   -0.1923703994   -0.6256742454
C        1.7216516452    1.0608697734   -4.2477509739
C        1.8061281604    0.1947363441   -2.9923664197
O       -0.0132201167    1.4773593456   -2.0581779449
F        1.0525085673   -1.5566835155   -0.8298423162
H       -0.1465547381   -0.5156457247    1.2867630531
H       -0.4002396903    1.1488206874    0.5439383901
H        2.1467273554    1.3963695009    0.3420030376
H        2.3480240467   -0.2921472945    1.0400905770
H        2.4524769383    0.7267721512   -4.9904460068
H        1.9187192450    2.1112757161   -4.0162259209
H        0.7251718846    1.0067416934   -4.6939410452
H        2.8106044762    0.2205555258   -2.5494807356
H        1.6277209328   -0.8630528867   -3.2232648034
17   
torsion grid (0,)
C        0.8994841831    0.6195298503   -1.8912901791
C        0.1917729708    0.1964579920    0.5985982356
C        1.6736806016    0.4980156995    0.5564267292
C        0.9828477444   -0.1741524658   -0.6160578100
C        1.7223118246    1.0578206861   -4.2574150837
C        1.7568657710    0.1319932895   -3.0429408982
O        0.1718896423    1.5991336780   -1.9618322002
F        1.2897225272   -1.5137971924   -0.8080648602
H       -0.1311725147   -0.6282386144    1.2256918327
H       -0.5100535984    1.0155236371    0.4815818209
H        1.9950827054    1.5272907126    0.4302945217
H        2.3341103889   -0.1395561835    1.1364491187
H        2.3474733315    0.6554148397   -5.0602570575
H        2.0874038009    2.0565680757   -4.0021352698
H        0.7027426873    1.1702522804   -4.6350591711
H        2.7787938829   -0.0081275586   -2.6670575998
H        1.4130366210   -0.8781514448   -3.2998472734
17   
torsion grid (15,)
C        1.0156186539    0.6689046606   -1.8639713322
C        0.1664256114    0.1419441942    0.5525035331
C        1.6192584846    0.5449530255    0.6439421573
C        1.0865062238   -0.1378744669   -0.6003019292
C        1.6919756130    1.0365524265   -4.2861378237
C        1.7303340430    0.1055236712   -3.0759169354
O        0.4060249520    1.7294470918   -1.8740206647
F        1.4892377959   -1.4531375786   -0.7876800413
H       -0.1501545847   -0.7247147068    1.1237436128
H       -0.5759598632    0.9168523266    0.3928409124
H        1.8741492420    1.5964733001    0.5596619882
H        2.2731012981   -0.0613318276    1.2632069054
H        2.2147218158    0.5812031889   -5.1327466752
H        2.1675796476    1.9950294983   -4.0605652044
H        0.6622320889    1.2467194313   -4.5867847336
H        2.7597836313   -0.1331435039   -2.7784949815
H        1.2751579163   -0.8674234494   -3.3021939323
17   
torsion grid (30,)
C        1.1509659479    0.7244304899   -1.8339733639
C        0.1488458530    0.0903896426    0.4860231168
C        1.5603356152    0.5711420243    0.7256250638
C        1.1971144732   -0.0965885462   -0.5801940132
C        1.6446247073    1.0156227861   -4.3091431288
C        1.7104199118    0.0939462279   -3.0931393818
O        0.6762282927    1.8518889784   -1.7983907978
F        1.6743067844   -1.3878723215   -0.7619817815
H       -0.1673265898   -0.8148542920    0.9943382898
H       -0.6198482076    0.8275440975    0.2788611734
H        1.7576489290    1.6373776942    0.6857094328
H        2.1865005184   -0.0149699725    1.3907923329
H        2.0575497402    0.5134954338   -5.1893300366
H        2.2111896846    1.9347311478   -4.1368831456
H        0.6131433447    1.3050114936   -4.5271192222
H        2.7396039486   -0.2224271891   -2.8787565339
H        1.1646896162   -0.8428904132   -3.2653531482
17   
torsion grid (45,)
C        0.9188751889    0.1809281278   -2.0946459678
C        0.1956842026   -1.9423442773   -0.7864388594
C       -0.2013687988   -0.7598681379    0.0690785679
C        0.9835603746   -0.6545475026   -0.8509883749
C        2.0681935225    1.5131257184   -3.9273446221
C        2.2289806087    0.7201731390   -2.6319940591
O       -0.1642960472    0.3904629458   -2.6241684849
F        2.2373114550   -0.6816986686   -0.2522534116
H        0.6980500354   -2.7720769827   -0.2993943458
H       -0.4154334771   -2.1838104627   -1.6500126827
H       -1.0803358637   -0.1907216362   -0.2149412680
H        0.0306596504   -0.8047216965    1.1281996675
H        3.0396897475    1.8820373396   -4.2700671182
H        1.4033406485    2.3689661629   -3.7837126275
H        1.6349341890    0.8930602084   -4.7168597709
H        2.6858058068    1.3279574889   -1.8401812908
H        2.9137451679   -0.1287144152   -2.7573324478
17   
torsion grid (60,)
C        0.8946685254    0.3016337874   -2.0154241151
C        0.2860235379   -1.9222506158   -0.8375370017
C       -0.2511229762   -0.8222325484    0.0595310916
C        0.9532791564   -0.5657242241   -0.7904440673
C        2.0674917346    1.4620112648   -3.9486113055
C        2.2201746716    0.6906013885   -2.6391275586
O       -0.1884559198    0.6524839047   -2.4620398611
F        2.1842131857   -0.5308201531   -0.1448440716
H        0.8398764722   -2.7296033484   -0.3687127049
H       -0.2669125577   -2.1759791013   -1.7363355669
H       -1.1630464256   -0.3142892633   -0.2362114453
H       -0.0674592504   -0.9123478201    1.1250776956
H        3.0502223071    1.7267663381   -4.3504553534
H        1.4952733698    2.3810349457   -3.7978090285
H        1.5367553789    0.8666772704   -4.6968270874
H        2.7735550084    1.2740465614   -1.8919101644
H        2.8128601926   -0.2238010353   -2.7713765517
17   
torsion grid (75,)
C        0.8761861938    0.3975334608   -1.9578670899
C        0.3887841374   -1.9008873047   -0.8618635187
C       -0.2963083816   -0.8733270810    0.0307111500
C        0.9192401038   -0.4923917747   -0.7429481430
C        2.0617944862    1.4332926787   -3.9550976024
C        2.1993588784    0.6379091296   -2.6582171999
O       -0.1800949356    0.8864628360   -2.3293353065
F        2.1113104518   -0.3730687492   -0.0338849755
H        0.9869883820   -2.6676768337   -0.3793231600
H       -0.0953926939   -2.1877529915   -1.7904415937
H       -1.2344961358   -0.4418936443   -0.3022838788
H       -0.1679015712   -0.9790526973    1.1028407272
H        3.0438013728    1.5871022894   -4.4125922810
H        1.6093175962    2.4106583687   -3.7686488370
H        1.4238360938    0.9101248824   -4.6729587779
H        2.8573412629    1.1488454072   -1.9439286168
H        2.6736311699   -0.3376706253   -2.8272179924
17   
torsion grid (90,)
C        0.8573890577    0.4602235959   -1.9289372067
C        0.5094396998   -1.8833569619   -0.8410000584
C       -0.3371400327   -0.9148431749   -0.0134361984
C        0.8860912308   -0.4329475564   -0.7068147011
C        2.0609776399    1.4408454093   -3.9470081793
C        2.1561092951    0.5552476493   -2.7060671680
O       -0.1544642449    1.0703866154   -2.2340162280
F        2.0111496821   -0.1871625919    0.0778298296
H        1.1368696886   -2.5861745806   -0.3012139485
H        0.1204733685   -2.2326805720   -1.7932245831
H       -1.2880896745   -0.5797910561   -0.4146260225
H       -0.2798542382   -1.0031046948    1.0664436911
H        3.0244834888    1.4754165017   -4.4644677759
H        1.7758388649    2.4613961824   -3.6782151186
H        1.3069755956    1.0641949861   -4.6436689681
H        2.9254919586    0.9175627161   -2.0130278474
H        2.4656550306   -0.4670051164   -2.9616066126
17   
torsion grid (105,)
C        0.8296901819    0.5031749831   -1.9232867695
C        0.6394472101   -1.8628342661   -0.7871939868
C       -0.3652731779   -0.9593635231   -0.0622273187
C        0.8514547495   -0.3820452568   -0.6867228106
C        2.0787348353    1.4666441953   -3.9252291828
C        2.0823072779    0.4607264925   -2.7759242674
O       -0.1255553997    1.2203585662   -2.1662046625
F        1.8808426838    0.0170656698    0.1660052648
H        1.2851398444   -2.4830028493   -0.1726998972
H        0.3601523629   -2.2865663131   -1.7480595026
H       -1.3154974433   -0.7423856099   -0.5396944578
H       -0.3827454549   -1.0075543565    1.0216670343
H        3.0024533055    1.3856670083   -4.5061272029
H        1.9963101395    2.4898237413   -3.5484146174
H        1.2315266706    1.2961394175   -4.5948171188
H        2.9400558166    0.6108905317   -2.1085828282
H        2.1883528090   -0.5685310797   -3.1455447721
17   
torsion grid (120,)
C        0.8314154657    0.5665975537   -1.8871379049
C        0.7435316605   -1.8348862862   -0.7553554846
C       -0.3854245940   -1.0085874899   -0.1229404667
C        0.8270415085   -0.3443144799   -0.6632249339
C        2.0839496857    1.4563810824   -3.9225462279
C        2.0172988146    0.4061140599   -2.8159914879
O       -0.0373218100    1.4060917702   -2.0422135944
F        1.7479510051    0.1493315338    0.2620558358
H        1.3825379247   -2.3995455935   -0.0832328732
H        0.5710785316   -2.2913443496   -1.7263213815
H       -1.3135522383   -0.8805092307   -0.6712432968
H       -0.4826929655   -1.0462399174    0.9573051615
H        2.9562051148    1.2851252895   -4.5605849727
H        2.1555935479    2.4629680639   -3.5015234374
H        1.1865946645    1.4265250927   -4.5463464447
H        2.9206549044    0.4142971807   -2.1918637492
H        1.9725351909   -0.6097969284   -3.2318918376
17   
torsion grid (135,)
C        0.8774105394    0.6369357709   -1.8188676861
C        0.8452972630   -1.7999143957   -0.7184829502
C       -0.3962673906   -1.0537437408   -0.2140363665
C        0.8256386065   -0.3082919843   -0.6182542476
C        2.0608641549    1.4334530869   -3.9314908620
C        1.9547006722    0.3634934324   -2.8473432330
O        0.1242955150    1.5920451092   -1.8746510089
F        1.5968025071    0.2361717579    0.4069896831
H        1.4396157763   -2.3297549157    0.0195577557
H        0.8092135204   -2.2620106401   -1.7010011922
H       -1.2683161886   -0.9875995471   -0.8575113049
H       -0.6070253972   -1.1015421034    0.8497038300
H        2.8572691204    1.1841813638   -4.6391715218
H        2.2788664117    2.4114548733   -3.4940865833
H        1.1219792611    1.5254463674   -4.4841567083
H        2.8988214972    0.2437881475   -2.2980612106
H        1.7582305422   -0.6259052312   -3.2821934896
17   
torsion grid (150,)
C        0.7269820343    0.0043236432   -2.1664681847
C        2.3064936116   -0.8442672244   -0.1664655799
C        1.0428069479   -1.6984512165   -0.1933342156
C        1.0196007383   -0.2888273318   -0.6964333540
C        1.4812394022    0.7572348035   -4.4800945952
C        1.8902293301    0.4027047980   -3.0521941486
O       -0.4176627310   -0.0822407588   -2.5727719408
F        0.3792437469    0.6378749927    0.1137981253
H        2.6298598187   -0.4676444790    0.7989820746
H        3.1088899093   -1.0734406972   -0.8609729121
H        0.9655471100   -2.5038935454   -0.9177072620
H        0.5387452990   -1.8765949959    0.7515548036
H        2.3587246855    1.0346564118   -5.0719213340
H        0.7782684030    1.5944481273   -4.4875409343
H        0.9866518732   -0.0876144266   -4.9666842913
H        2.4065944379    1.2361374231   -2.5562957027
H        2.6175838021   -0.4208615190   -3.0450172932
17   
torsion grid (165,)
C        0.6961887023    0.1785132071   -2.0827478699
C        2.2973718937   -0.7232667944   -0.1234242196
C        1.1598672802   -1.6936526267   -0.3666862603
C        0.9813628652   -0.2192852235   -0.6470836661
C        1.4690454170    0.6580242776   -4.4597218549
C        1.8769486724    0.3156165277   -3.0280742913
O       -0.4583650976    0.3077812650   -2.4496471424
F        0.1896564729    0.4636847564    0.2540247152
H        2.5187753660   -0.4662342780    0.9077120658
H        3.1576245809   -0.7388601630   -0.7845834040
H        1.2178401079   -2.3752420934   -1.2103249651
H        0.6234433131   -2.0720247299    0.4978355078
H        2.3535813557    0.7481979134   -5.0974744854
H        0.9182000062    1.6014710200   -4.4929989279
H        0.8169025302   -0.1143063877   -4.8760416446
H        2.5510593210    1.0745527958   -2.6087479017
H        2.4502956320   -0.6214254613   -3.0015824004
17   
torsion grid (180,)
C        0.6944813456    0.2720776863   -2.0436224219
C        2.2791191965   -0.6584863434   -0.0967590404
C        1.2350239536   -1.6929830045   -0.4512372003
C        0.9456822376   -0.2158371676   -0.6382446198
C        1.4584788458    0.6014876284   -4.4477798732
C        1.8652090808    0.2581096772   -3.0156147449
O       -0.4289549004    0.6069150031   -2.3770740524
F        0.0755189660    0.3283812530    0.2795962582
H        2.4392499124   -0.4557232890    0.9574100519
H        3.1600533801   -0.5579193933   -0.7218207436
H        1.3756273424   -2.3084841742   -1.3344461011
H        0.6945435308   -2.1653322518    0.3628073934
H        2.3335582727    0.5930847826   -5.1046688761
H        0.9959867534    1.5903108408   -4.4949664069
H        0.7292938056   -0.1176028855   -4.8308166365
H        2.6120374852    0.9692431110   -2.6372588242
H        2.3548892109   -0.7236974683   -2.9750709070
