23   
torsion grid (-165,)
C        1.6243804315   -1.2708637292    0.0054489917
C        2.2654423162   -1.9879632498   -0.9338961725
C        0.3245852861   -0.6790492489   -0.4924184982
C        1.4631808406   -2.0041729424   -2.2280424007
C        0.0799195096   -1.4454225998   -1.8163818917
C        3.7137689960   -3.6690615769    0.3783185585
C        4.4840279286   -2.3713929747    0.3529930984
C        3.5665363576   -2.7148119699   -0.8064381680
C        4.2298785378   -3.1448900040   -2.1063731770
H        2.0000731324   -1.0762148438    1.0072330820
H       -0.5017120926   -0.8012424509    0.2180591302
H        0.4319141530    0.4026397451   -0.6608902885
H        1.9510780805   -1.3727175430   -2.9838824234
H        1.3877509634   -3.0058145277   -2.6656304423
H       -0.6031222973   -2.2803340526   -1.6284226482
H       -0.3731063700   -0.8218553947   -2.5926827446
H        4.2600146072   -4.5956458444    0.2184653505
H        2.8657162031   -3.7458700252    1.0516873597
H        4.1803125716   -1.5764854823    1.0265815037
H        5.5543881732   -2.4172167605    0.1701940817
H        5.1790201054   -3.6518942284   -1.9054820778
H        4.4447335135   -2.2834303245   -2.7490305193
H        3.5988840501   -3.8386971856   -2.6715241282
23   
torsion grid (-150,)
C        1.7174672488   -1.0952195050   -0.0753445092
C        2.2928658790   -1.9412032761   -0.9459686300
C        0.3779876310   -0.5820734015   -0.5562922815
C        1.3986567378   -2.1480122584   -2.1603041032
C        0.0435817723   -1.5337771081   -1.7328852642
C        3.6367208246   -3.7728222016    0.2577202885
C        4.4197018515   -2.4914228626    0.4401270374
C        3.5839735043   -2.6775411035   -0.8069810937
C        4.3209028779   -2.9678937900   -2.1069199262
H        2.1680105723   -0.7544860061    0.8532921433
H       -0.3914591143   -0.5998202449    0.2247713079
H        0.4609185508    0.4636238350   -0.8867625447
H        1.8219308284   -1.6353624558   -3.0353765893
H        1.3062223205   -3.2052736419   -2.4353420226
H       -0.6158959086   -2.3312335623   -1.3748570853
H       -0.4719839680   -1.0294981381   -2.5554542878
H        4.1822404569   -4.6839816398    0.0238330719
H        2.7489639003   -3.9119587081    0.8669750163
H        4.0817383086   -1.7903330850    1.1960054874
H        5.4993596872   -2.5334719539    0.3246047145
H        5.2404360076   -3.5301671465   -1.9152342188
H        4.5988186821   -2.0395059889   -2.6196255613
H        3.7065063465   -3.5609729707   -2.7920953732
23   
torsion grid (-135,)
C        1.7883694194   -0.9813816956   -0.1587351006
C        2.2944000811   -1.9425320685   -0.9477251586
C        0.4320164277   -0.4999456831   -0.6265543741
C        1.3363254875   -2.2626692479   -2.0854647110
C        0.0139987090   -1.5862717619   -1.6503794308
C        3.6004000520   -3.8624413832    0.1492067649
C        4.3498342052   -2.5915447146    0.4958584761
C        3.5864519738   -2.6728731511   -0.8055004762
C        4.3892900503   -2.8236089113   -2.0903428396
H        2.3012841075   -0.5453410671    0.6945875842
H       -0.2912569694   -0.3963796629    0.1909415359
H        0.5160796684    0.4914009984   -1.0953785360
H        1.7143329712   -1.8439661590   -3.0287175307
H        1.2246515836   -3.3416899501   -2.2459120919
H       -0.6208014066   -2.3255713870   -1.1505921662
H       -0.5554461862   -1.1823950034   -2.4926406318
H        4.1748205533   -4.7393482681   -0.1394730201
H        2.6885810771   -4.0726131035    0.7003417817
H        3.9541851725   -1.9762330049    1.2971553476
H        5.4349933156   -2.6089119463    0.4416639143
H        5.3107047601   -3.3873724105   -1.9117437362
H        4.6676714709   -1.8439029950   -2.4958236831
H        3.8167784736   -3.3568146378   -2.8568863414
23   
torsion grid (-120,)
C        1.8449860200   -0.9060928558   -0.2462557730
C        2.2818112693   -1.9669203197   -0.9423197204
C        0.4820572661   -0.4337825948   -0.7038643975
C        1.2686967265   -2.3701952999   -2.0023249637
C       -0.0134025979   -1.6099393773   -1.5849280669
C        3.5935518503   -3.9409312953    0.0533331749
C        4.2858716811   -2.6789449858    0.5345844562
C        3.5818809204   -2.6837025098   -0.8025253325
C        4.4451205181   -2.6913849720   -2.0572531016
H        2.4140591823   -0.4024053664    0.5312292935
H       -0.1991644110   -0.2186883597    0.1278533758
H        0.5725078880    0.4977385864   -1.2815097794
H        1.6165202132   -2.0589481332   -2.9974801118
H        1.1225282753   -3.4559316277   -2.0482958151
H       -0.6433082536   -2.2708535451   -0.9801472992
H       -0.6113927577   -1.2800912869   -2.4395230411
H        4.2088800165   -4.7753318624   -0.2740698033
H        2.6691568220   -4.2235765295    0.5490625260
H        3.8295625815   -2.1417961511    1.3598149528
H        5.3724454071   -2.6610378785    0.5329213580
H        5.3756113307   -3.2438534855   -1.8895863424
H        4.7062601579   -1.6695450973   -2.3551915696
H        3.9234248914   -3.1661922669   -2.8956384437
23   
torsion grid (-105,)
C        1.8966783291   -0.8460569243   -0.3413857024
C        2.2677308776   -1.9921456895   -0.9317733274
C        0.5303985549   -0.3777044713   -0.7922756554
C        1.2002524914   -2.4686886023   -1.9037323958
C       -0.0388535299   -1.6236889953   -1.5200451808
C        3.5975166862   -4.0127561009   -0.0471879771
C        4.2283203099   -2.7731414164    0.5627411496
C        3.5775336807   -2.6960051748   -0.8003081076
C        4.4915548254   -2.5580129699   -2.0110590198
H        2.5169417729   -0.2862126822    0.3548442832
H       -0.1073842988   -0.0486614453    0.0365549877
H        0.6259256012    0.4813875247   -1.4723797792
H        1.5164509482   -2.2759301374   -2.9389130100
H        1.0190360918   -3.5473122687   -1.8295248778
H       -0.6611010064   -2.1936494669   -0.8219454842
H       -0.6638927952   -1.3662468092   -2.3800950017
H        4.2538695467   -4.8000182820   -0.4094974771
H        2.6654325989   -4.3641484347    0.3869073888
H        3.7176844225   -2.3131631114    1.4029307088
H        5.3130230733   -2.7243752977    0.6109052452
H        5.4284670091   -3.1049545469   -1.8603757096
H        4.7355649500   -1.5052541906   -2.1913034592
H        4.0165148583   -2.9556677212   -2.9151960220
23   
torsion grid (-90,)
C        1.9434752761   -0.7921129290   -0.4494766872
C        2.2557797230   -2.0093088006   -0.9189487687
C        0.5715427734   -0.3337082438   -0.8916946182
C        1.1341814905   -2.5578449968   -1.7859146492
C       -0.0624964171   -1.6323358177   -1.4564916470
C        3.6065779422   -4.0746672566   -0.1566053845
C        4.1783027379   -2.8760242384    0.5799649582
C        3.5746648854   -2.7030356184   -0.7980902433
C        4.5341425783   -2.4246429547   -1.9484135684
H        2.6104082349   -0.1788822873    0.1529379297
H       -0.0201236477    0.1033575415   -0.0787125140
H        0.6603502984    0.4432828473   -1.6650926065
H        1.4142962323   -2.4993640627   -2.8477515675
H        0.9228406199   -3.6133688432   -1.5800231759
H       -0.6765882928   -2.0997944180   -0.6795889283
H       -0.7102870324   -1.4487218541   -2.3185561999
H        4.2988927703   -4.8114973652   -0.5557696833
H        2.6713304826   -4.4877706708    0.2113904095
H        3.6215674054   -2.4972779580    1.4315415818
H        5.2586845482   -2.8027819272    0.6751868440
H        5.4687014132   -2.9829908411   -1.8256889009
H        4.7753769886   -1.3573026354   -1.9960540951
H        4.0960439870   -2.7156138841   -2.9102629092
23   
torsion grid (-75,)
C        1.9909110549   -0.7391441367   -0.5852591658
C        2.2524836353   -2.0117302240   -0.9207170337
C        0.6056722757   -0.2994203087   -1.0037294565
C        1.0708006397   -2.6281826138   -1.6520897849
C       -0.0856679260   -1.6386776366   -1.3703921456
C        3.6116329519   -4.1259601112   -0.2896872624
C        4.1154003473   -2.9946842720    0.5865746845
C        3.5770130112   -2.7020389303   -0.8015435918
C        4.5909536030   -2.2952908303   -1.8636672440
H        2.7036577628   -0.0737292216   -0.1021191698
H        0.0707659661    0.2485253670   -0.2190617243
H        0.6658539303    0.3760639440   -1.8697812913
H        1.2941289335   -2.7030500708   -2.7265510133
H        0.8456909984   -3.6457467280   -1.3139943967
H       -0.6608297355   -1.9936563315   -0.5087058315
H       -0.7802649512   -1.5430906628   -2.2099697892
H        4.3423217685   -4.8061183808   -0.7196816096
H        2.6723715378   -4.5956405008   -0.0116160312
H        3.5069742478   -2.7046208242    1.4376244524
H        5.1876627894   -2.9076877610    0.7434833701
H        5.5265005088   -2.8545931200   -1.7511189800
H        4.8187438296   -1.2268573975   -1.7883746085
H        4.2048878184   -2.4870764623   -2.8717368005
23   
torsion grid (-60,)
C        2.0372551274   -0.6874503247   -0.7700702989
C        2.2615618029   -1.9976215784   -0.9579956082
C        0.6267411077   -0.2771195104   -1.1281175638
C        1.0105912286   -2.6856469912   -1.4810761011
C       -0.1065809038   -1.6372782760   -1.2582302415
C        3.6219466916   -4.1599078274   -0.4656781767
C        4.0209511937   -3.1315080068    0.5719655900
C        3.5873349374   -2.6859580717   -0.8152395878
C        4.6757860252   -2.1679217031   -1.7469858532
H        2.7921960417    0.0255223812   -0.4450071815
H        0.1656583294    0.3774308497   -0.3789823901
H        0.6192312222    0.2813427840   -2.0756495475
H        1.1402641952   -2.9346170989   -2.5443994021
H        0.7959263846   -3.6308557281   -0.9706232420
H       -0.6246040100   -1.8580587043   -0.3190693299
H       -0.8577909337   -1.6412104192   -2.0532555263
H        4.4053570843   -4.7657743698   -0.9133336641
H        2.6824890974   -4.6842026208   -0.3203282362
H        3.3364485173   -2.9506828442    1.3952399760
H        5.0732836109   -3.0377286492    0.8284380472
H        5.6112190081   -2.7209011114   -1.6059398031
H        4.8782038862   -1.1076856917   -1.5624888306
H        4.3741953533   -2.2745737016   -2.7952874525
23   
torsion grid (-45,)
C        2.0733521261   -0.6498969421   -1.0080791562
C        2.2842495709   -1.9764273227   -1.0344353973
C        0.6310280670   -0.2764522205   -1.2638342101
C        0.9801219135   -2.7207759798   -1.2713082888
C       -0.1103479656   -1.6309678465   -1.1197187739
C        3.6344023986   -4.1690378841   -0.6765121513
C        3.8840868512   -3.2799276351    0.5204195573
C        3.6037095866   -2.6582725353   -0.8393694413
C        4.7744717327   -2.0470796449   -1.5957871883
H        2.8529389453    0.0969614685   -0.8779155001
H        0.2568044895    0.4792968318   -0.5628643343
H        0.5130487067    0.1497139811   -2.2706278164
H        0.9834907742   -3.1723406641   -2.2734165219
H        0.8276263647   -3.5454900554   -0.5654143044
H       -0.5515898192   -1.6975361204   -0.1200183397
H       -0.9241493096   -1.7471702989   -1.8411800352
H        4.4825173739   -4.6967761365   -1.1044108932
H        2.7023585036   -4.7232032067   -0.7144196025
H        3.1039234663   -3.2096831328    1.2730027772
H        4.8957548284   -3.2051819784    0.9110361523
H        5.6957453064   -2.6114535783   -1.4149395593
H        4.9558555850   -1.0112965108   -1.2889269787
H        4.5782655011   -2.0494098023   -2.6733944175
23   
torsion grid (-30,)
C        2.0889152109   -0.6494791137   -1.2021479143
C        2.2933067426   -1.9714320186   -1.0679240219
C        0.6304621930   -0.2997649501   -1.3975932542
C        0.9708716123   -2.7218206457   -1.1146625957
C       -0.0946785000   -1.6065837604   -0.9881391490
C        3.6441782350   -4.1690206824   -0.8390221695
C        3.7941261781   -3.4085448941    0.4566077557
C        3.6055882112   -2.6463170230   -0.8485300135
C        4.8206021573   -1.9538277128   -1.4439961537
H        2.8754521548    0.0999009964   -1.2332807193
H        0.3133464010    0.5593210542   -0.7945244147
H        0.4313144167   -0.0339693383   -2.4461067914
H        0.8852875447   -3.2665136484   -2.0654831585
H        0.8739333998   -3.4712828614   -0.3201815798
H       -0.4122998590   -1.5294238645    0.0569565926
H       -0.9883341331   -1.8051628534   -1.5869311207
H        4.5274707748   -4.6441018417   -1.2570143369
H        2.7233150673   -4.7182878008   -1.0047411633
H        2.9633182380   -3.4229376292    1.1561623672
H        4.7746313226   -3.3637960831    0.9230368594
H        5.7302171902   -2.5357844418   -1.2622318048
H        4.9741518882   -0.9610411327   -1.0063820937
H        4.7024885510   -1.8325369686   -2.5259855439
23   
torsion grid (-15,)
C        2.0939716197   -0.6755927747   -1.3488906727
C        2.2919731605   -1.9740408158   -1.0592125421
C        0.6297083179   -0.3319028316   -1.5123404046
C        0.9598543944   -2.7062124883   -0.9787152515
C       -0.0801911424   -1.5644140025   -0.8996987501
C        3.6604302176   -4.1639882235   -0.9678605797
C        3.7582797901   -3.5205862085    0.3933798081
C        3.6025035076   -2.6455857225   -0.8463046594
C        4.8305444303   -1.8808056269   -1.3078987271
H        2.8838016960    0.0534095295   -1.5069840647
H        0.3501481846    0.6028763461   -1.0122011399
H        0.3771399660   -0.2044554144   -2.5754254599
H        0.8186584547   -3.3184044015   -1.8806321037
H        0.8886055024   -3.3899672129   -0.1249706064
H       -0.3099459497   -1.3600564913    0.1514439301
H       -1.0213210395   -1.8113537927   -1.3998547968
H        4.5613956527   -4.5922234490   -1.3984916109
H        2.7499073357   -4.7008182567   -1.2133459207
H        2.9101327974   -3.6106527514    1.0651294796
H        4.7244252982   -3.5045538612    0.8901333823
H        5.7410269075   -2.4639509849   -1.1359998429
H        4.9374670854   -0.9346629866   -0.7654296171
H        4.7691488105   -1.6544647927   -2.3779442736
23   
torsion grid (0,)
C        2.0923611332   -0.7171386266   -1.4724125358
C        2.2877915995   -1.9732829084   -1.0318041637
C        0.6269805972   -0.3711747540   -1.6168564148
C        0.9505053333   -2.6736598516   -0.8308791410
C       -0.0717061030   -1.5132876808   -0.8392735541
C        3.6827964847   -4.1471240563   -1.0966724879
C        3.7442798455   -3.6302139155    0.3193523381
C        3.5994631931   -2.6463396156   -0.8379635997
C        4.8291815342   -1.8219125058   -1.1746700199
H        2.8828599704   -0.0231560401   -1.7432726596
H        0.3775159165    0.6198451205   -1.2196634369
H        0.3340298227   -0.3652057466   -2.6772968947
H        0.7673576636   -3.3726406050   -1.6591124528
H        0.8988974542   -3.2626528063    0.0913191782
H       -0.2546060973   -1.1878650877    0.1902994995
H       -1.0356578049   -1.7996081613   -1.2702026631
H        4.5967188224   -4.5216967979   -1.5494229813
H        2.7826104718   -4.6662181893   -1.4095510238
H        2.8896181704   -3.8023726911    0.9653989810
H        4.7018451953   -3.6463595665    0.8322905319
H        5.7440714422   -2.3972076791   -1.0005778787
H        4.8784491775   -0.9195640067   -0.5550307670
H        4.8223011752   -1.5135710422   -2.2261122777
23   
torsion grid (15,)
C        2.0827453234   -0.7743543600   -1.5913282923
C        2.2853521109   -1.9678396137   -1.0041252780
C        0.6171233712   -0.4258840562   -1.7202633821
C        0.9516722647   -2.6179897364   -0.6609749958
C       -0.0636254811   -1.4574903983   -0.7880558652
C        3.7115347608   -4.1083957750   -1.2401758952
C        3.7258477166   -3.7440417937    0.2243618650
C        3.5991781260   -2.6451269172   -0.8256103904
C        4.8279490563   -1.7759721468   -1.0307373997
H        2.8683876613   -0.1309188049   -1.9771160677
H        0.3922390600    0.6086912718   -1.4351917968
H        0.2857317959   -0.5410289141   -2.7630068936
H        0.7296027369   -3.4255757304   -1.3730543540
H        0.9336606858   -3.0680104109    0.3369934959
H       -0.2160353061   -1.0053812987    0.1975895461
H       -1.0410348732   -1.7866605821   -1.1528210715
H        4.6424383169   -4.4200947043   -1.7060689922
H        2.8268012706   -4.5984015726   -1.6343916132
H        2.8579027797   -4.0019419914    0.8215630061
H        4.6694057006   -3.8073187972    0.7591457824
H        5.7438225731   -2.3447952703   -0.8411117203
H        4.8148399899   -0.9175305082   -0.3504318796
H        4.8821253573   -1.3963451034   -2.0573022318
23   
torsion grid (30,)
C        2.0629522343   -0.8518688437   -1.7196290401
C        2.2865070272   -1.9628283309   -0.9959662953
C        0.5967983846   -0.4972884135   -1.8161024866
C        0.9725710646   -2.5383106383   -0.4884255611
C       -0.0505776725   -1.4036354512   -0.7395112824
C        3.7473777196   -4.0530457667   -1.3845653598
C        3.6933800346   -3.8460066162    0.1105377473
C        3.6026907330   -2.6446114054   -0.8194087493
C        4.8274655403   -1.7459910847   -0.8756308302
H        2.8330891971   -0.2784624478   -2.2286860155
H        0.3973933674    0.5667372922   -1.6414751858
H        0.2144008758   -0.7240529441   -2.8223271422
H        0.7129135932   -3.4512722722   -1.0441152131
H        1.0163678720   -2.8197935672    0.5689910794
H       -0.1823526442   -0.8295502254    0.1833727117
H       -1.0352230868   -1.7784909819   -1.0335286951
H        4.6996291651   -4.3104597050   -1.8406219791
H        2.8824171881   -4.4969082524   -1.8684065967
H        2.8016106108   -4.1741313119    0.6338386810
H        4.6124529255   -3.9670850132    0.6773753798
H        5.7426667984   -2.3227568277   -0.7062420011
H        4.7691344099   -0.9650209540   -0.1100098681
H        4.9239996596   -1.2575734527   -1.8515777216
23   
torsion grid (45,)
C        2.0281569036   -0.9639844299   -1.8608601858
C        2.2807144737   -1.9776361280   -1.0160058437
C        0.5649869013   -0.5847623571   -1.9002401875
C        0.9971899248   -2.4490378327   -0.3508786049
C       -0.0157661107   -1.3223321091   -0.6673126353
C        3.8162112231   -3.9921816966   -1.5186352204
C        3.6584535428   -3.9373796498   -0.0158251542
C        3.6029009329   -2.6535300666   -0.8251666028
C        4.8021719116   -1.7248292727   -0.7088554816
H        2.7720809603   -0.4856028626   -2.4934693204
H        0.3978942882    0.4980447161   -1.8567113189
H        0.1048929571   -0.9330516409   -2.8368653395
H        0.6779661150   -3.4128679131   -0.7752107162
H        1.1177891102   -2.6089263269    0.7262038979
H       -0.0565911229   -0.6298037968    0.1798263909
H       -1.0303031857   -1.6964358719   -0.8326429180
H        4.8013502917   -4.1934103255   -1.9315384757
H        2.9922932813   -4.3941887393   -2.1012815866
H        2.7395802200   -4.3285261374    0.4090057227
H        4.5398224371   -4.1056353919    0.5972921496
H        5.7255254084   -2.2945322817   -0.5582062476
H        4.6797832389   -1.0416481982    0.1384470472
H        4.9305612951   -1.1201489017   -1.6131837932
23   
torsion grid (60,)
C        1.9757019395   -1.1197250017   -2.0053561080
C        2.2627424955   -2.0229655816   -1.0548781700
C        0.5295052877   -0.6779876906   -1.9736042471
C        1.0304541148   -2.3352624873   -0.2218432814
C        0.0359733810   -1.2122790264   -0.6039287942
C        3.9228812183   -3.9225896444   -1.6452621105
C        3.6341105238   -4.0356883189   -0.1627295975
C        3.5939400060   -2.6785906202   -0.8357912047
C        4.7354284608   -1.7189015546   -0.5289187932
H        2.6817767766   -0.7682223167   -2.7548045259
H        0.4096438971    0.4079342012   -2.0660716329
H       -0.0275922582   -1.1245753545   -2.8104240958
H        0.6362672097   -3.3288722777   -0.4816571608
H        1.2485857064   -2.3612416451    0.8519555558
H        0.0975393077   -0.4098291017    0.1385829253
H       -1.0027657118   -1.5543187511   -0.6302076104
H        4.9479861389   -4.0513365183   -1.9835235391
H        3.1691851208   -4.2854765116   -2.3379143804
H        2.6969565476   -4.4961629890    0.1354364135
H        4.4655544204   -4.2437767723    0.5056380240
H        5.6753191151   -2.2611334314   -0.3765373376
H        4.5240704217   -1.1427490519    0.3789434699
H        4.8844008782   -1.0086567682   -1.3492182227
23   
torsion grid (75,)
C        1.9063260510   -1.2910624484   -2.1192143810
C        2.2413384552   -2.0750885764   -1.0836935322
C        0.4840311138   -0.7829796550   -2.0273082171
C        1.0864596625   -2.2007971071   -0.1039058189
C        0.1003303175   -1.0962891970   -0.5568900751
C        4.0304213573   -3.8266776247   -1.7614367625
C        3.6244326937   -4.1313084831   -0.3317167845
C        3.5785251985   -2.7069972257   -0.8423331169
C        4.6455091254   -1.7378745499   -0.3498885470
H        2.5582181775   -1.0782396459   -2.9640977690
H        0.3942910533    0.2837929641   -2.2637062442
H       -0.1625045395   -1.3149056630   -2.7405879116
H        0.6365595626   -3.2015993238   -0.1738079198
H        1.4084801738   -2.0813648095    0.9372616886
H        0.2582128071   -0.2008583440    0.0533732041
H       -0.9480083428   -1.3878277542   -0.4441452075
H        5.0858565240   -3.8801417832   -2.0165039694
H        3.3562320951   -4.1332105748   -2.5554044235
H        2.6848761061   -4.6537010773   -0.1754336774
H        4.4052158181   -4.3934814021    0.3775607515
H        5.5914020551   -2.2565710231   -0.1572995958
H        4.3330775978   -1.2498863250    0.5808571640
H        4.8283819344   -0.9553375848   -1.0937932786
23   
torsion grid (90,)
C        1.1062637660   -2.2987753373   -0.1268857641
C        2.2031041821   -2.0957427809   -0.8713010032
C       -0.0504457266   -1.4189413691   -0.5485302471
C        1.9467786969   -1.0528640535   -1.9465982399
C        0.4077061404   -0.8818572558   -1.9309051167
C        4.2149832917   -2.8559534734    0.5744201077
C        4.7647944614   -1.9985908204   -0.5519604195
C        3.5085230048   -2.8172344402   -0.7649585191
C        3.6011126890   -4.0615853300   -1.6387595020
H        1.0582088434   -2.9786684417    0.7211649957
H       -1.0007850009   -1.9624395318   -0.6064811359
H       -0.2012601929   -0.6056532888    0.1762260233
H        2.4663104413   -0.1174035409   -1.6946402936
H        2.3276470940   -1.3600093158   -2.9277472665
H       -0.0319183733   -1.5008873317   -2.7199579066
H        0.0916426012    0.1497136792   -2.1114754493
H        4.7568930434   -3.7608838416    0.8371121492
H        3.7476185379   -2.3479625910    1.4122979786
H        4.6647314874   -0.9208868950   -0.4569436688
H        5.6769504690   -2.3232033725   -1.0461042660
H        4.5900268510   -4.5266198785   -1.5596655319
H        3.4295840139   -3.8177523308   -2.6938176360
H        2.8491946765   -4.7982056724   -1.3366037123
23   
torsion grid (105,)
C        1.1474210254   -2.1951465568   -0.0533600201
C        2.1972616163   -2.1125333890   -0.8841093954
C       -0.0090681177   -1.3226905892   -0.4902256843
C        1.9017148541   -1.1689942953   -2.0389671530
C        0.3723651171   -0.9444765815   -1.9459653083
C        4.1485808645   -2.9566295788    0.5937602907
C        4.7302743355   -1.9961710748   -0.4284305044
C        3.5046790428   -2.8242187374   -0.7686877183
C        3.6796266362   -3.9830152794   -1.7417832365
H        1.1348562754   -2.7820368308    0.8622448476
H       -0.9763762597   -1.8353894430   -0.4321321480
H       -0.0881464190   -0.4355979342    0.1549751546
H        2.4643814885   -0.2337620553   -1.9071662565
H        2.2071153216   -1.5766986948   -3.0093697362
H       -0.1345852830   -1.6252292352   -2.6377977170
H        0.0741617022    0.0735327591   -2.2130158695
H        4.7000500718   -3.8684194321    0.8077581016
H        3.6355617027   -2.5284043685    1.4490887089
H        4.5943542858   -0.9331054552   -0.2501584180
H        5.6719121997   -2.2584327529   -0.9040643847
H        4.6677082657   -4.4429107697   -1.6322125844
H        3.5818701218   -3.6487099739   -2.7809466256
H        2.9219461499   -4.7533669455   -1.5615487674
23   
torsion grid (120,)
C        1.1892314040   -2.0945061045    0.0027511675
C        2.1847996101   -2.1383310558   -0.8959995740
C        0.0373326638   -1.2225359999   -0.4459715939
C        1.8475022197   -1.2924361351   -2.1145902496
C        0.3358512972   -1.0004977736   -1.9515817705
C        4.0889986137   -3.0549756292    0.6017173430
C        4.6849857276   -2.0020843366   -0.3136567822
C        3.4978141089   -2.8359260102   -0.7723791855
C        3.7651401499   -3.9001618808   -1.8288025510
H        1.2113943561   -2.5889070887    0.9707853174
H       -0.9413039179   -1.6872455573   -0.2778533026
H        0.0318109537   -0.2750739180    0.1125093298
H        2.4496039635   -0.3724589348   -2.1027322251
H        2.0732950211   -1.7959602893   -3.0609212229
H       -0.2364875707   -1.7239333554   -2.5415673232
H        0.0553409250   -0.0018522066   -2.2988061037
H        4.6562706022   -3.9670756474    0.7666623426
H        3.5341464940   -2.7096979275    1.4679562834
H        4.5053429806   -0.9608490180   -0.0615134040
H        5.6523833079   -2.2001754309   -0.7683930120
H        4.7485573094   -4.3590751184   -1.6820795336
H        3.7454629800   -3.4757757519   -2.8385124283
H        3.0101917978   -4.6928720442   -1.7791359454
23   
torsion grid (135,)
C        1.2376655094   -1.9852026241    0.0478526045
C        2.1729256752   -2.1593418477   -0.8998369146
C        0.0885257565   -1.1189730748   -0.4177991025
C        1.7838872482   -1.4252812551   -2.1753541566
C        0.2957872709   -1.0625948389   -1.9527746140
C        4.0375298904   -3.1600695187    0.5999989160
C        4.6392821907   -2.0201895784   -0.1963185173
C        3.4927529201   -2.8433724325   -0.7745124558
C        3.8486538127   -3.7986547447   -1.9059764916
H        1.2992722516   -2.3783422023    1.0592309353
H       -0.8924412782   -1.5232555222   -0.1417056724
H        0.1526348180   -0.1196847358    0.0374594425
H        2.4143266582   -0.5318780310   -2.2936153267
H        1.9301915846   -2.0282538628   -3.0777379854
H       -0.3345733579   -1.8208550123   -2.4288840796
H        0.0246148965   -0.0948878004   -2.3846846717
H        4.6212652612   -4.0701297078    0.7078053405
H        3.4430414901   -2.9072133341    1.4714381222
H        4.4155170141   -1.0086974348    0.1298036208
H        5.6288310516   -2.1540939905   -0.6264850013
H        4.8196387634   -4.2713714340   -1.7258085068
H        3.9090531338   -3.2767471217   -2.8668849032
H        3.0992824363   -4.5933171094   -1.9973250062
23   
torsion grid (150,)
C        1.3043214443   -1.8520048948    0.0792202352
C        2.1715673599   -2.1600774082   -0.8999619643
C        0.1457801342   -1.0108783400   -0.4082573777
C        1.7116627289   -1.5619336291   -2.2226576128
C        0.2488563601   -1.1390834570   -1.9485474389
C        3.9818692189   -3.2787961140    0.5848256653
C        4.6011876310   -2.0611732227   -0.0641073583
C        3.4956095455   -2.8389500177   -0.7787067538
C        3.9293750753   -3.6720889344   -1.9764671701
H        1.4222757638   -2.1229196891    1.1251313252
H       -0.8231757637   -1.3497296975   -0.0230006866
H        0.2640028704    0.0323060100   -0.0795492967
H        2.3479122893   -0.7026244780   -2.4813307030
H        1.7865912901   -2.2650073134   -3.0587709244
H       -0.4244501439   -1.9325819181   -2.2892160648
H       -0.0345022052   -0.2223702699   -2.4738559094
H        4.5744026425   -4.1884520587    0.6298973903
H        3.3375279844   -3.1274629618    1.4443401606
H        4.3401225699   -1.0872072134    0.3383979205
H        5.6125467214   -2.1418105732   -0.4553409204
H        4.8976492081   -4.1470545925   -1.7884000750
H        4.0326893105   -3.0566324661   -2.8763248256
H        3.2038429617   -4.4658739747   -2.1894320390
23   
torsion grid (165,)
C        1.3966980362   -1.6855270843    0.0875123156
C        2.1863288840   -2.1316107518   -0.9052057273
C        0.2073796384   -0.8999224281   -0.4178610040
C        1.6311811939   -1.6980992208   -2.2554312074
C        0.1927977939   -1.2318832525   -1.9305375048
C        3.9084322125   -3.4087284734    0.5503763288
C        4.5674397416   -2.1343693657    0.0807123591
C        3.5099062051   -2.8163748861   -0.7878278827
C        4.0174630542   -3.5226144841   -2.0358188690
H        1.5944617445   -1.8138673268    1.1490730476
H       -0.7307828950   -1.1723549321    0.0800260087
H        0.3529846591    0.1761837247   -0.2408765188
H        2.2436615309   -0.8805966293   -2.6638371753
H        1.6472049645   -2.4986792148   -3.0023149376
H       -0.5022396730   -2.0586123369   -2.1110369092
H       -0.1311960136   -0.3905198329   -2.5500480028
H        4.4961315407   -4.3226570415    0.5331773870
H        3.1966690903   -3.3516924960    1.3676375616
H        4.2812848126   -1.2045564046    0.5625784026
H        5.6023860364   -2.1811194502   -0.2497750832
H        4.9920908927   -3.9846608655   -1.8486318632
H        4.1372919917   -2.8246119709   -2.8713108766
H        3.3300895560   -4.3155324905   -2.3526942729
23   
torsion grid (180,)
C        1.5110769746   -1.4863482178    0.0639647527
C        2.2212628465   -2.0689413676   -0.9185451960
C        0.2702759141   -0.7870349736   -0.4444648286
C        1.5444596414   -1.8405285527   -2.2635912886
C        0.1313476214   -1.3393308260   -1.8845127689
C        3.8132835782   -3.5431610653    0.4844302483
C        4.5313186402   -2.2425680610    0.2263503999
C        3.5355991367   -2.7744493020   -0.8000404249
C        4.1205450684   -3.3453461301   -2.0824223082
H        1.8013870274   -1.4592466906    1.1121127413
H       -0.6177128631   -0.9868129353    0.1670310717
H        0.4123273673    0.3040166074   -0.4402350586
H        2.1018584091   -1.0876095400   -2.8396719934
H        1.5107580197   -2.7415714681   -2.8851042414
H       -0.5603268998   -2.1883610647   -1.8787765613
H       -0.2614505590   -0.6015001874   -2.5902617947
H        4.3816377068   -4.4664342707    0.4044089010
H        3.0258337222   -3.5592296779    1.2316909105
H        4.2336667800   -1.3672919116    0.7953933239
H        5.5872245002   -2.2821500307   -0.0293356217
H        5.0942835605   -3.8065921552   -1.8890879208
H        4.2678208390   -2.5662065721   -2.8383775998
H        3.4711879657   -4.1157088209   -2.5130691662
