28   
torsion grid (-165,)
C       -1.8253720813   -0.8306412096    1.6734396998
N       -0.4985386190   -0.8788064340    2.4042239799
C        0.5334103676   -0.1407603846    1.6064338718
C       -0.0689950644   -2.3239362145    2.5277990161
C       -0.5928888155   -0.2197113081    3.7988345755
C       -1.9281855583   -0.4906248227    4.4638689825
O       -2.0985285986   -1.8834855902    4.4865636724
P       -3.7215527180   -2.3706204218    4.8268777770
O       -3.3789715394   -3.9574410578    5.0299475404
C       -2.8858235998   -4.3732068438    6.3097109966
O       -4.1063170847   -1.7060308110    6.1095914463
O       -4.4089210389   -2.1917187317    3.5056818868
H       -2.5728488085   -1.4298911826    2.2026604524
H       -2.1485914107    0.2090424653    1.6097896595
H       -1.6593256753   -1.2246288948    0.6694071924
H        1.4700430265   -0.1211439643    2.1658388779
H        0.6838091690   -0.6511921026    0.6541445622
H        0.1878620820    0.8779913804    1.4276259738
H        0.9190699573   -2.3509625396    2.9898343231
H       -0.7987742074   -2.8391275414    3.1477676139
H       -0.0232228324   -2.7492111539    1.5239551158
H        0.2356081164   -0.6269155840    4.3807010691
H       -0.4413789352    0.8523088961    3.6491452923
H       -1.8966006856   -0.0651155832    5.4770965881
H       -2.7435715363    0.0164404485    3.9330014620
H       -2.8749258647   -5.4664758300    6.3029060310
H       -3.5307470557   -4.0075570677    7.1130182793
H       -1.8666259427   -3.9998960336    6.4729457700
28   
torsion grid (-150,)
C       -1.7500095395   -0.7131024946    1.5818367645
N       -0.5362551518   -0.7572917010    2.4863368762
C        0.5154002616    0.1697604136    1.9557893296
C        0.0156212261   -2.1661461819    2.4769676259
C       -0.8841951507   -0.3062980904    3.9177834296
C       -2.2132732491   -0.8542168434    4.4060466133
O       -2.1405632270   -2.2565556761    4.3597004108
P       -3.6626111305   -3.0123426936    4.0731302769
O       -3.1324882509   -4.5444099025    4.2694279103
C       -3.0258473129   -5.0448426778    5.6095791046
O       -4.5882952788   -2.5803650350    5.1626148376
O       -3.8865214409   -2.7733411751    2.6041683078
H       -2.4814498689   -1.4766188372    1.8848285889
H       -2.1864716168    0.2855463661    1.6402817029
H       -1.4047611016   -0.9025487569    0.5637637335
H        1.3595494180    0.1872081193    2.6471068334
H        0.8463894858   -0.1863921502    0.9794443273
H        0.0948904359    1.1713245749    1.8588953317
H        0.9168008344   -2.1874993009    3.0916699241
H       -0.7398937483   -2.8316016496    2.8857917867
H        0.2590030779   -2.4220693695    1.4446160181
H       -0.0611751914   -0.6459779793    4.5495271535
H       -0.9011327038    0.7868583409    3.9011988229
H       -2.3608360808   -0.4896488587    5.4332361583
H       -3.0434065416   -0.4589141243    3.8103203314
H       -2.8173067440   -6.1148451695    5.5290354236
H       -3.9565286308   -4.8822389822    6.1593598626
H       -2.2035568258   -4.5514549425    6.1422336380
28   
torsion grid (-135,)
C       -1.7268733000   -0.4739642554    1.7563416032
N       -0.3895021768   -0.7264225762    2.4142028890
C        0.7033658425   -0.1428331674    1.5700038540
C       -0.1842658391   -2.2279587067    2.5078686835
C       -0.3135915403   -0.0421722554    3.7867731837
C       -1.4709549358   -0.3580592473    4.7183268988
O       -1.4257066738   -1.7230942515    5.0554341173
P       -2.9617512450   -2.4807134508    4.9658767256
O       -2.4806175636   -3.9476950122    5.4848463438
C       -2.3443128933   -4.1430287866    6.9002338367
O       -3.8766305442   -1.7919788225    5.9232954832
O       -3.2093072344   -2.5731585164    3.4782478027
H       -2.4929353864   -1.0516153242    2.2867739107
H       -1.9299050840    0.5984209880    1.7795924393
H       -1.6575581465   -0.8160059360    0.7221840367
H        1.6632785683   -0.3178789631    2.0583611049
H        0.6955265453   -0.6253575775    0.5923022451
H        0.5362787263    0.9287801816    1.4526082598
H        0.6857281441   -2.4224230989    3.1345119742
H       -1.0799709918   -2.6800683069    2.9323108123
H       -0.0130369347   -2.5928204855    1.4930948082
H        0.6299821734   -0.3639751106    4.2322342755
H       -0.2694271228    1.0320729484    3.5842996467
H       -1.3328006583    0.2698357046    5.6108417304
H       -2.4283815875   -0.0619687494    4.2781547072
H       -2.1796400613   -5.2124655335    7.0536922337
H       -3.2486979301   -3.8216663889    7.4235031980
H       -1.4848051607   -3.5815517450    7.2851574101
28   
torsion grid (-120,)
C        0.2189608999    1.0468452383    1.5478150749
N        0.1638112280   -0.1044236842    2.5091493432
C        0.9015231388    0.3072620482    3.7701157727
C        0.8518105833   -1.2966308703    1.8862193698
C       -1.3176067805   -0.3964913628    2.7778500446
C       -1.6206241007   -1.6952526732    3.5187829170
O       -1.0502710405   -1.6576498575    4.8016066318
P        0.1092821225   -2.8418088322    5.2317697428
O       -0.7918780522   -3.8639155010    6.1230861984
C       -1.1652759471   -3.4454812394    7.4437500803
O        0.4785105633   -3.5392435064    3.9512366455
O        1.0801416517   -2.0632020041    6.0667326070
H       -0.2503990534    0.7548456821    0.6076686394
H       -0.3097022832    1.8984593996    1.9784892258
H        1.2617695240    1.3125129443    1.3715760777
H        0.9503214881   -0.5086640758    4.4906618723
H        1.9071847093    0.6083841916    3.4712664087
H        0.3726253698    1.1535161564    4.2102374426
H        0.8704667434   -2.1339141002    2.5953593231
H        0.3037278344   -1.5732448254    0.9831186028
H        1.8670387826   -0.9935132618    1.6242640729
H       -1.6868059289    0.4589509222    3.3479429418
H       -1.8048406897   -0.4085182592    1.7981686619
H       -2.7174704135   -1.7417585915    3.5922943915
H       -1.2848391112   -2.5698344802    2.9543184073
H       -1.6468865173   -4.3036514015    7.9186751671
H       -1.8728684437   -2.6090232830    7.3974344645
H       -0.2846060143   -3.1425753025    8.0167198385
28   
torsion grid (-105,)
C        0.3094240636    0.9769746087    1.5546988938
N        0.1951162599   -0.1917389297    2.4906340852
C        0.9159860715    0.1708828821    3.7728412311
C        0.8478943783   -1.3923650827    1.8475089939
C       -1.2977630257   -0.4269293175    2.7313442455
C       -1.7481300402   -1.7323135609    3.3948141871
O       -1.3634387457   -1.8377724755    4.7397885312
P       -0.0741953296   -2.8714239839    5.1758027974
O       -0.8645344598   -3.9757310214    6.0694893807
C       -1.2888811938   -3.5966114963    7.3866495373
O        0.3830955376   -3.5302116014    3.9035640058
O        0.8198643101   -2.0084660539    6.0175959140
H       -0.1335118949    0.7145405830    0.5932074094
H       -0.2130779784    1.8330282248    1.9839010356
H        1.3640949428    1.2195067839    1.4205432348
H        0.8612478509   -0.6298340903    4.5143434510
H        1.9586888383    0.3666844255    3.5168363552
H        0.4540011860    1.0749125714    4.1725860023
H        0.8342751673   -2.2391467470    2.5459337750
H        0.2933682682   -1.6333524874    0.9380610262
H        1.8724161186   -1.1153293948    1.5926843790
H       -1.6335393603    0.4248519100    3.3278262433
H       -1.7668434512   -0.3690585203    1.7442180515
H       -2.8455349788   -1.6930765215    3.3441755288
H       -1.4169462731   -2.6008206844    2.8166667111
H       -1.6589165308   -4.5046593495    7.8686306891
H       -2.0967902063   -2.8573840826    7.3321665261
H       -0.4538954271   -3.1807525624    7.9572515465
28   
torsion grid (-90,)
C        0.2772720328    0.9797638622    1.5797341563
N        0.2064607600   -0.2274710205    2.4707847666
C        1.0107059812    0.0751182125    3.7169686709
C        0.8029839481   -1.4035013004    1.7356211719
C       -1.2751856278   -0.4538057574    2.7969540228
C       -1.7813358153   -1.8210642074    3.2883966828
O       -1.5445958846   -2.1233667479    4.6352864023
P       -0.1131829736   -2.9155199462    5.1023183114
O       -0.7424693190   -4.1409775040    5.9616397223
C       -1.2523821350   -3.8557574387    7.2723444643
O        0.4903542532   -3.4666528668    3.8393654934
O        0.6181557570   -1.9434171278    5.9843552472
H       -0.2013950676    0.7540304103    0.6260115816
H       -0.2323886902    1.8139019658    2.0640951448
H        1.3247995882    1.2346788611    1.4154133728
H        0.9108288910   -0.7136182755    4.4687442750
H        2.0550339424    0.1795787748    3.4182771416
H        0.6447890087    1.0174441013    4.1285383041
H        0.8458794860   -2.2659421884    2.4133625946
H        0.1749542023   -1.6164193875    0.8679947305
H        1.8018435127   -1.1134982554    1.4043780727
H       -1.5371191965    0.3169386785    3.5258697577
H       -1.8022454395   -0.2406315553    1.8622378614
H       -2.8694337633   -1.7459454994    3.1620897764
H       -1.4254878172   -2.6224629531    2.6313555492
H       -1.4696510663   -4.8193853563    7.7390978185
H       -2.1747702671   -3.2670749306    7.2051207192
H       -0.5133999097   -3.3085649915    7.8641245095
28   
torsion grid (-75,)
C       -0.9786297031    1.4326455308    2.2601753854
N        0.3425416792    0.7559725196    2.5930215151
C        1.4299203273    1.7827339009    2.4582956754
C        0.5854528430   -0.3597062626    1.6250722566
C        0.3986932177    0.2394727517    4.0355113787
C       -0.6376103748   -0.8203071259    4.4170567781
O       -1.9574121114   -0.3727832249    4.2229474152
P       -2.4795820116    0.7464462741    5.4278253237
O       -4.0452042325    0.7865136142    4.9841837139
C       -4.8832184826   -0.3026692515    5.3986504122
O       -2.2598543125    0.0806740875    6.7486635961
O       -1.8487128607    2.0614000542    5.0451093840
H       -1.7478261817    0.6701482144    2.1798537124
H       -1.2514818345    2.0944319914    3.0880362861
H       -0.8375818246    1.9613978081    1.3149154084
H        2.3898245218    1.3291166477    2.7088208742
H        1.4485246888    2.1513047857    1.4316932549
H        1.2137104394    2.6026358001    3.1432339578
H        1.5402864461   -0.8363615404    1.8541819337
H       -0.2229962301   -1.0833062368    1.7098725432
H        0.6051411507    0.0486402562    0.6135127947
H        1.4105196184   -0.1565083761    4.1685158128
H        0.2507403201    1.1183328644    4.6654194529
H       -0.5007700925   -1.7410054441    3.8367037355
H       -0.4487233790   -1.0631709408    5.4717490471
H       -5.9097149261   -0.0176004667    5.1550242304
H       -4.7854854950   -0.4779828713    6.4732886982
H       -4.6187079042   -1.2183379447    4.8569039295
28   
torsion grid (-60,)
C       -0.9819008905    1.0479022170    2.0048689364
N        0.3315873175    0.6960528126    2.6776458460
C        1.0670944527    1.9889354130    2.9221295984
C        1.1163140773   -0.1841578499    1.7549669090
C        0.1945879236   -0.0075791121    4.0422038521
C       -1.0672218266   -0.8415284765    4.2790228181
O       -2.2461680699   -0.0765219231    4.1961690838
P       -2.3302198803    1.2046265333    5.3325000173
O       -3.9303866052    1.4645073315    5.2513278291
C       -4.7899203682    0.5341463266    5.9277838720
O       -1.8799102051    0.6419752530    6.6449363555
O       -1.6297959937    2.3612176344    4.6589752561
H       -1.5480408691    0.1376816112    1.8235884433
H       -1.5337512467    1.7130610676    2.6694781488
H       -0.7261485288    1.5350683250    1.0611096405
H        2.0118482324    1.7669021173    3.4212316010
H        1.2559948189    2.4736734792    1.9623709353
H        0.4255296193    2.6043529390    3.5571182610
H        2.1115486160   -0.3485714962    2.1700048613
H        0.5955184509   -1.1370970168    1.6518023136
H        1.1976799328    0.2970393007    0.7794321792
H        1.0862105456   -0.6309626355    4.1480318591
H        0.2246225071    0.7794755854    4.7923151410
H       -1.1506496189   -1.6602263209    3.5522326250
H       -0.9428189521   -1.2792508813    5.2781952600
H       -5.8001790503    0.9463751373    5.8728391287
H       -4.4870300161    0.4175297126    6.9719339326
H       -4.7650089557   -0.4417952509    5.4295245474
28   
torsion grid (-45,)
C       -0.9878852306    0.9521917577    1.7413419700
N        0.3668500322    0.5402397226    2.2828351953
C        1.2519917119    1.7616816302    2.2837972307
C        0.9375972792   -0.5091826684    1.3798108511
C        0.3300071800   -0.0125090380    3.7261156130
C       -1.0030314934   -0.5900781009    4.2049211522
O       -2.0294327628    0.3593037571    4.3789437857
P       -1.5870822925    1.7983835894    5.1915776253
O       -3.0795065778    2.2985352666    5.5794550828
C       -3.7519970793    1.6202679215    6.6517462641
O       -0.7645665959    1.3802121969    6.3732654808
O       -1.0419077670    2.7207193770    4.1286663940
H       -1.6502551934    0.0891364168    1.7435297199
H       -1.3793217670    1.7448501730    2.3801447840
H       -0.8270077543    1.3001806496    0.7188518883
H        2.2287421754    1.4826322925    2.6828805689
H        1.3556360549    2.1189688264    1.2572616178
H        0.7642299511    2.5060028782    2.9185551601
H        1.9561028780   -0.7418282840    1.6934054220
H        0.3169287743   -1.4043118917    1.4428020422
H        0.9432320761   -0.1380043857    0.3540758837
H        1.0983368115   -0.7880748379    3.7674593323
H        0.6217351830    0.7979001662    4.3896995362
H       -1.3758423074   -1.3637782294    3.5219416402
H       -0.7617249062   -1.0769473222    5.1602720083
H       -4.6672545214    2.1825570751    6.8504136416
H       -3.1240161167    1.5951662200    7.5466137429
H       -4.0078361303    0.5967605230    6.3551684745
28   
torsion grid (-30,)
C       -1.0577990450    0.7190835900    1.4584728997
N        0.2701099562    0.3418571957    2.0820105853
C        1.1206092739    1.5866792005    2.1630980383
C        0.9343240332   -0.6696816369    1.1996473185
C        0.1455699380   -0.2504089496    3.5104779991
C       -1.2332071125   -0.7712790775    3.9204178580
O       -2.2039642611    0.1984202215    4.2418998643
P       -1.6873484050    1.6831806934    4.9032660849
O       -3.1275360074    2.1872379254    5.4464428575
C       -3.6551137414    1.5569841151    6.6240346720
O       -0.7150732270    1.3485757757    5.9973739115
O       -1.2870998346    2.5570238886    3.7410840320
H       -1.6721608197   -0.1746266323    1.3655576216
H       -1.5309485220    1.4678182150    2.0967450507
H       -0.8429466471    1.1238876012    0.4676566548
H        2.0722521727    1.3240392256    2.6282347645
H        1.2888185493    1.9586026909    1.1503296957
H        0.5686471137    2.3112387972    2.7681374325
H        1.9342851628   -0.8810130248    1.5808728176
H        0.3377827648   -1.5833891428    1.1973208080
H        1.0027861324   -0.2733351478    0.1855744353
H        0.8591422979   -1.0758037207    3.5493728615
H        0.4623940414    0.5130092457    4.2190089954
H       -1.6565764707   -1.4364491016    3.1583359792
H       -1.0244372273   -1.3901384765    4.8057913234
H       -4.5463344572    2.1218946529    6.9065537830
H       -2.9221800170    1.5800434466    7.4353007607
H       -3.9321992138    0.5187506604    6.4094017497
28   
torsion grid (-15,)
C       -1.0209495835    0.6186353991    1.3387224152
N        0.2490636791    0.3298851991    2.1077026977
C        0.9744546019    1.6375232718    2.3394541619
C        1.1122470336   -0.5675626328    1.2743164699
C        0.0032872011   -0.3600752185    3.4820781626
C       -1.4277790077   -0.7898187244    3.8176536314
O       -2.3423418194    0.1977368320    4.2341578829
P       -1.8316156789    1.7399917393    4.7293827224
O       -3.1943317524    2.1870435273    5.4793971345
C       -3.4908550938    1.5813172696    6.7466611279
O       -0.6754923280    1.5361263605    5.6712936128
O       -1.6745161767    2.5693583517    3.4821526399
H       -1.5183078306   -0.3233801972    1.1116724651
H       -1.6456448874    1.2822232841    1.9419381437
H       -0.7321004503    1.1124994442    0.4091891208
H        1.8758212249    1.4308738357    2.9177610036
H        1.2382754027    2.0574897874    1.3666890159
H        0.2957015996    2.3016078852    2.8809934464
H        2.0621368603   -0.7295312236    1.7856697021
H        0.6008534283   -1.5206590036    1.1301999683
H        1.2912074335   -0.0963067699    0.3067811375
H        0.6267886151   -1.2553596585    3.4756018634
H        0.3539498056    0.3202335336    4.2594667551
H       -1.8818580876   -1.3482427951    2.9907222139
H       -1.2845138821   -1.5081689442    4.6391718125
H       -4.3632558237    2.1040058109    7.1451398902
H       -2.6447676600    1.6856096265    7.4317939016
H       -3.7289619093    0.5196916797    6.6155496304
28   
torsion grid (0,)
C       -0.9925753574    0.4341280157    1.2082519947
N        0.2076381191    0.2133875709    2.0984058036
C        0.8340889608    1.5595209057    2.4036126487
C        1.2091950711   -0.6139365029    1.3500788609
C       -0.1325074667   -0.5306971903    3.4265552702
C       -1.5971535293   -0.8849915253    3.7117875346
O       -2.4640888856    0.1053008337    4.2120141005
P       -1.9773252115    1.6952494030    4.5237887942
O       -3.2664451984    2.1495022245    5.3891803434
C       -3.3927719118    1.6377608975    6.7242995266
O       -0.7165115008    1.6148356975    5.3463208617
O       -1.9850173662    2.4293645966    3.2097580961
H       -1.4053681267   -0.5334825490    0.9240539292
H       -1.7139202056    1.0554054095    1.7468056286
H       -0.6452786061    0.9586722092    0.3162925237
H        1.6685851719    1.4022067735    3.0868087787
H        1.1872415070    1.9826311220    1.4610683093
H        0.0743862666    2.1986086231    2.8549707798
H        2.0985286376   -0.7448885051    1.9681878949
H        0.7704745141   -1.5857321179    1.1186262887
H        1.4770437463   -0.1016329690    0.4249994686
H        0.4168446563   -1.4717891611    3.3770341450
H        0.2481421445    0.0857940637    4.2419378048
H       -2.0651830175   -1.3475616343    2.8344401897
H       -1.5142596417   -1.6762567283    4.4714887179
H       -4.2369354613    2.1603443385    7.1796238472
H       -2.4806799497    1.8259572208    7.2978027783
H       -3.5978704185    0.5614957624    6.7024549404
28   
torsion grid (15,)
C       -0.9224288642    0.3755015405    1.2039329179
N        0.2254542785    0.1749783697    2.1629938919
C        0.7765845106    1.5365345069    2.5427828287
C        1.3108481567   -0.5823659295    1.4569289605
C       -0.1638812115   -0.6414755303    3.4352683564
C       -1.6408978053   -0.9915714271    3.6779366254
O       -2.4715954630   -0.0671070485    4.3385666572
P       -2.0439707580    1.5494107755    4.5589455609
O       -3.3067025590    1.9852778681    5.4707350233
C       -3.3409570413    1.5351182491    6.8335888063
O       -0.7426379362    1.5569656924    5.3211745001
O       -2.1396892015    2.2283745233    3.2182907812
H       -1.2739557062   -0.5979532568    0.8617695135
H       -1.7023408882    0.9473957780    1.7159470466
H       -0.5419556940    0.9450061555    0.3539770120
H        1.5550123092    1.3966058783    3.2918981806
H        1.1900910576    1.9857948951    1.6375902744
H       -0.0351503831    2.1419382731    2.9431712155
H        2.1575138652   -0.7066412449    2.1335983072
H        0.9300098549   -1.5587183159    1.1536675177
H        1.6241111544   -0.0203845207    0.5761818435
H        0.3675268952   -1.5881818063    3.3315207971
H        0.2180664895   -0.0852096430    4.2922980665
H       -2.1220660262   -1.3079690891    2.7441743599
H       -1.5865605981   -1.8846637450    4.3151417051
H       -4.1784376076    2.0493538437    7.3102979557
H       -2.4068276401    1.7830296174    7.3454781579
H       -3.5058859530    0.4526108863    6.8735405168
28   
torsion grid (30,)
C       -0.9167268421    0.3464727704    1.1140960161
N        0.1789445756    0.1917587197    2.1379457618
C        0.6355491827    1.5780138694    2.5580091014
C        1.3470957396   -0.4950990911    1.4926753597
C       -0.2399560852   -0.6770143810    3.3649849970
C       -1.7249137991   -1.0277081754    3.5891487313
O       -2.5035153702   -0.1892646320    4.4088516966
P       -2.1622181289    1.4548400889    4.5239432552
O       -3.4097206725    1.8827899448    5.4600649753
C       -3.3575725466    1.5422686511    6.8540662827
O       -0.8372819912    1.5753706984    5.2335766517
O       -2.3384391070    2.0424135186    3.1475937882
H       -1.2062864894   -0.6397469507    0.7494847489
H       -1.7488399129    0.8782917750    1.5852619312
H       -0.5123909416    0.9360380477    0.2890738280
H        1.3493532505    1.4770616496    3.3738174558
H        1.1038205425    2.0403437577    1.6865813108
H       -0.2314353257    2.1467758785    2.8867911656
H        2.1503140861   -0.5934740854    2.2243872452
H        1.0385204717   -1.4812697328    1.1428598486
H        1.6911863039    0.1028516245    0.6480347491
H        0.2831062952   -1.6222395248    3.2159064504
H        0.1481233730   -0.1696253775    4.2490750265
H       -2.2330941186   -1.1892043448    2.6304603735
H       -1.6928050120   -2.0015776949    4.0923008644
H       -4.1923051915    2.0596714290    7.3322139073
H       -2.4110260263    1.8664515812    7.2953599263
H       -3.4733372609    0.4608181752    6.9867773589
28   
torsion grid (45,)
C        0.0391642547    1.9334499371    1.6976285945
N        0.4520845445    0.4941131082    1.9515836443
C        1.7454797576    0.2598287714    1.2264065949
C       -0.6038408074   -0.4064712663    1.3649223263
C        0.7263956988    0.2131219170    3.4606913381
C       -0.2968870198   -0.5842403894    4.3033101891
O       -1.1723867933    0.1554775594    5.1190334557
P       -1.9091852693    1.5158202582    4.4557267687
O       -3.0704337423    1.7301961595    5.5619138957
C       -2.7015293679    2.2948588311    6.8300217364
O       -0.8817566153    2.6178535279    4.4798120668
O       -2.5234853155    1.0793105441    3.1491236461
H       -0.9694053247    2.0790202501    2.0761120896
H        0.7284462185    2.5936782223    2.2205756094
H        0.0853481566    2.0940619615    0.6184750734
H        2.0415846344   -0.7836996863    1.3421422800
H        1.6084853917    0.4872771726    0.1687341861
H        2.5112325736    0.9136287407    1.6464323421
H       -0.3020191634   -1.4460885534    1.5005067739
H       -1.5509687423   -0.1823004603    1.8638847022
H       -0.6710687045   -0.1817167691    0.2987192899
H        1.6549884380   -0.3586242757    3.4578131226
H        0.8933652469    1.1848123527    3.9273624384
H       -0.8595575126   -1.2864085615    3.6775733447
H        0.3115318788   -1.1849646247    4.9878331100
H       -3.6334983711    2.5257754914    7.3508740945
H       -2.1121650907    3.2052015719    6.6902930344
H       -2.1249446177    1.5707995534    7.4164377120
28   
torsion grid (60,)
C        0.0301287084    1.9541850546    1.8030201263
N        0.4585242849    0.5109509323    2.0005556961
C        1.7410827234    0.3123513064    1.2455763054
C       -0.6025131923   -0.3792823082    1.4085266643
C        0.7619075798    0.1683591830    3.4874511407
C       -0.3032924229   -0.5392252002    4.3612229587
O       -0.9864829710    0.2886679052    5.2676832618
P       -1.8569503252    1.5676321719    4.5943385122
O       -3.0029663387    1.7338929074    5.7266977732
C       -2.6502655472    2.3822230363    6.9584648124
O       -0.9191279306    2.7432294811    4.5494656249
O       -2.4740980778    1.0297023044    3.3261472568
H       -0.9712927830    2.0809555586    2.2048466200
H        0.7222258329    2.6033868302    2.3358499645
H        0.0544136285    2.1507399526    0.7291616096
H        2.0371370354   -0.7360081104    1.3028671268
H        1.5894827280    0.5944168654    0.2032391052
H        2.5137566118    0.9428040770    1.6880365445
H       -0.3082670636   -1.4216598967    1.5425133972
H       -1.5467210510   -0.1523452269    1.9108226555
H       -0.6689825245   -0.1509325666    0.3430475054
H        1.6332151709   -0.4857208151    3.4323279568
H        1.0449737933    1.1073244727    3.9648001518
H       -1.0068546175   -1.1137102552    3.7507699070
H        0.2564799321   -1.2530745216    4.9746616997
H       -3.5850137955    2.5626558113    7.4942334963
H       -2.1382868214    3.3285807972    6.7639706429
H       -2.0044041548    1.7329437090    7.5603480017
28   
torsion grid (75,)
C       -0.0141890656    2.0006056521    2.0275603379
N        0.4923300243    0.5741601869    2.0802638648
C        1.8536156544    0.5563164613    1.4454232863
C       -0.4201526676   -0.3245304946    1.2821591459
C        0.6678266378    0.0832005350    3.5332249677
C       -0.4623035063   -0.6685626912    4.2706591351
O       -1.3727732006    0.1040132561    5.0022840665
P       -2.5582448913    0.9970652656    4.1868767812
O       -3.8034259952    0.7644973180    5.1989419024
C       -3.8256943391    1.5033016191    6.4294607190
O       -2.0935102044    2.4278866364    4.1980617271
O       -2.8194839811    0.2670871089    2.8966595172
H       -0.9166194828    2.1213649733    2.6309285853
H        0.7698605054    2.6462507460    2.4271392905
H       -0.2045938270    2.2455862292    0.9815702877
H        2.1976437288   -0.4749277769    1.3555071101
H        1.7868105004    1.0105481174    0.4561238554
H        2.5458303468    1.1275490238    2.0656484858
H       -0.0547183971   -1.3497577203    1.3672320488
H       -1.4382983052   -0.2252667077    1.6777610492
H       -0.3688244204   -0.0030494106    0.2402123927
H        1.5159931783   -0.6036434815    3.4819371647
H        0.9637649783    0.9591300798    4.1140058378
H       -0.9808738898   -1.3528436544    3.5895686507
H        0.0731121587   -1.2804582375    5.0061575958
H       -4.8145741745    1.3495772366    6.8676550993
H       -3.6566871659    2.5676161087    6.2443211442
H       -3.0598131897    1.1251823766    7.1164317759
28   
torsion grid (90,)
C       -0.1825465648    1.8721728978    2.3339844388
N        0.2712925845    0.4295800889    2.2682738275
C        1.6130927428    0.4054213826    1.5934539723
C       -0.6958719535   -0.3864776493    1.4449129243
C        0.4666644406   -0.1643209390    3.6689744730
C       -0.7236382763   -0.7195304242    4.4702148569
O       -1.5450553145    0.2257555291    5.0973032161
P       -2.8903049231    0.8748644536    4.2828510869
O       -4.0453393792    0.5954572822    5.3892772927
C       -4.0866579898    1.4371928553    6.5507599197
O       -2.6076213069    2.3438197228    4.1412622080
O       -3.1292920046   -0.0163281448    3.0947088962
H       -1.1006722396    1.9850597084    2.9184081668
H        0.6171040789    2.4517609940    2.7986554795
H       -0.3440889896    2.2141224747    1.3104074437
H        1.9186118260   -0.6292254482    1.4327196309
H        1.5341256605    0.9197409542    0.6350488922
H        2.3419444400    0.9151597176    2.2251873691
H       -0.3584219822   -1.4250180180    1.4540672602
H       -1.7011042713   -0.2938257412    1.8760836302
H       -0.6685629331    0.0001550665    0.4244576019
H        1.1639826897   -0.9949552319    3.5250093183
H        0.9687705311    0.6125717329    4.2506106846
H       -1.3105273910   -1.4128873146    3.8574938607
H       -0.2410241578   -1.3042079045    5.2644029192
H       -5.0161698985    1.2012296645    7.0741888094
H       -4.0729991211    2.4924055744    6.2643053945
H       -3.2347237185    1.2261132685    7.2076708523
28   
torsion grid (105,)
C       -0.0833826717    1.9175149817    2.4361295435
N        0.2988404567    0.4592621266    2.2857281990
C        1.6066748342    0.4021243915    1.5500415092
C       -0.7447713974   -0.2720247654    1.4749786567
C        0.5214824269   -0.2073979897    3.6451142929
C       -0.6943310397   -0.5781794638    4.5003047640
O       -1.3912200098    0.5347629000    4.9940427368
P       -2.8871727475    0.9779575045    4.2965882999
O       -3.8920953895    0.7066426698    5.5453056182
C       -3.8793312693    1.6405963354    6.6344759461
O       -2.7382374126    2.4433532947    4.0082921595
O       -3.1705434812   -0.0429885862    3.2293238536
H       -1.0229125135    2.0409556609    2.9802207421
H        0.7218892300    2.4211045139    2.9731831609
H       -0.1802440930    2.3346939260    1.4322903484
H        1.8681845096   -0.6392135794    1.3583149267
H        1.5032282080    0.9360300539    0.6048461890
H        2.3806356370    0.8746101947    2.1565030713
H       -0.4446696249   -1.3195184875    1.4016990738
H       -1.7232173475   -0.1822694364    1.9644754669
H       -0.7653910868    0.1765331970    0.4801446437
H        1.0798329494   -1.1247519969    3.4341280186
H        1.1689324481    0.4752546307    4.2008658713
H       -1.3610550036   -1.2580516604    3.9603991015
H       -0.2658639812   -1.1304754432    5.3487088523
H       -4.7126487802    1.3699686715    7.2872581548
H       -4.0043553078    2.6633743891    6.2683891699
H       -2.9390284559    1.5662088217    7.1934361325
28   
torsion grid (120,)
C       -0.0785353323    1.6873621140    2.1456717125
N        0.4116391881    0.2533823996    2.2231484480
C        1.7876503404    0.1885086889    1.6290940110
C       -0.5210957190   -0.6283869692    1.4269079782
C        0.5273113901   -0.2394231098    3.6669896587
C       -0.7620098636   -0.3839211657    4.4686820295
O       -1.3264815583    0.8709233132    4.7617788952
P       -2.8995287276    1.1634563913    4.1671995226
O       -3.7701976509    0.1588652234    5.1258484856
C       -4.0282673308    0.5976839551    6.4674533763
O       -3.1544277194    2.6014532923    4.4552424476
O       -2.9130358326    0.5466915046    2.7877140608
H       -1.1522035780    1.6983274634    2.3206995155
H        0.4416901391    2.2785686460    2.8981237364
H        0.1465825025    2.0549350181    1.1429588181
H        2.1504399858   -0.8395495276    1.6669881580
H        1.7429084239    0.5244843169    0.5928339140
H        2.4531563383    0.8393426088    2.1981018207
H       -0.1879076284   -1.6631555978    1.5288381462
H       -1.5381643980   -0.4797112982    1.8057028194
H       -0.4610129809   -0.3200428852    0.3815837666
H        1.0267063381   -1.2112453957    3.6062594322
H        1.1914188693    0.4678730099    4.1692272926
H       -1.4687687252   -1.0498927153    3.9652602997
H       -0.4584917235   -0.8758507387    5.4045231209
H       -4.6882453826   -0.1467188988    6.9200008431
H       -4.5111960231    1.5786111599    6.4657659325
H       -3.0965596264    0.6589678513    7.0432615323
28   
torsion grid (135,)
C       -0.8627016357    1.0607699183    2.1258217385
N       -0.2472056749   -0.1276416969    2.8429978248
C        1.1570897653   -0.3116749619    2.3513766308
C       -1.0653320722   -1.3543635184    2.5097704914
C       -0.1695500303    0.0854858586    4.3617145106
C       -1.5127954680    0.0936047878    5.0708400662
O       -2.2481208359    1.2138406633    4.6429305509
P       -3.8816161223    0.8370757439    4.2802493033
O       -4.3507966304    2.3545059918    3.9188118753
C       -4.6798610667    3.2284992875    5.0087449234
O       -3.7732946640    0.0646646840    2.9862176505
O       -4.5225839811    0.3055179740    5.5189736829
H       -1.9358738557    1.0681577217    2.3131600375
H       -0.3954436154    1.9723510253    2.4973500275
H       -0.6589203027    0.9339990182    1.0606267685
H        1.5941398948   -1.1912119708    2.8261848389
H        1.1416755818   -0.4474310103    1.2696487311
H        1.7416189937    0.5749239035    2.6020381520
H       -0.6938849426   -2.1926237306    3.1023348162
H       -2.1203706207   -1.1382584738    2.7148376337
H       -0.9317526073   -1.5635068901    1.4469107620
H        0.4594955151   -0.7228714222    4.7461284304
H        0.3412098011    1.0396739492    4.5065478754
H       -2.0478460435   -0.8493126394    4.9202237135
H       -1.2957174560    0.1580288315    6.1473091716
H       -5.1222611918    4.1252245193    4.5676795118
H       -3.7775120725    3.5028048821    5.5679450085
H       -5.3924070047    2.7502808760    5.6859227165
28   
torsion grid (150,)
C       -0.7772386686    0.9454354579    2.3494983152
N        0.2078455078   -0.2009483840    2.2556255160
C        1.5690551906    0.3668545871    1.9872401313
C       -0.1944725938   -1.0996996723    1.1055650213
C        0.2712095027   -0.9844592601    3.5804466698
C       -0.8766493318   -1.9665166892    3.7343643888
O       -2.0758391490   -1.2341182685    3.6699042479
P       -3.4343985433   -2.0701161429    3.0312942505
O       -3.5579584848   -3.2864875488    4.1278301238
C       -4.1946713318   -2.9819804558    5.3759344280
O       -4.5480835328   -1.0872436929    3.1508949505
O       -2.9093835472   -2.6711118282    1.7559524969
H       -1.7562479625    0.5424518937    2.5953936912
H       -0.4397913414    1.6234906382    3.1348204681
H       -0.7832986549    1.4602852905    1.3875915850
H        2.2725002691   -0.4496325535    1.8206033841
H        1.5235819699    1.0005357413    1.1005761352
H        1.8851909042    0.9592017787    2.8473191814
H        0.5096973052   -1.9319798568    1.0572049615
H       -1.2133071654   -1.4807101810    1.2479410899
H       -0.1288487202   -0.5093197235    0.1899914524
H        1.2309322985   -1.5083796279    3.5851051489
H        0.2632617333   -0.2352799974    4.3743989673
H       -0.8416479565   -2.7539696112    2.9749798989
H       -0.7537269399   -2.4525069874    4.7141722875
H       -4.2739896788   -3.9229908629    5.9266845860
H       -5.1880001045   -2.5567378073    5.2097988122
H       -3.5969621664   -2.2678655764    5.9569174893
28   
torsion grid (165,)
C       -0.7854604664    0.7235819343    2.5873369263
N        0.1579000460   -0.4531050692    2.4463599300
C        1.5287858277    0.0690705820    2.1390724973
C       -0.3128446649   -1.3215932846    1.3009891703
C        0.2292734963   -1.2551008456    3.7630063904
C       -0.9182645774   -2.2387628480    3.8948446431
O       -2.1092312386   -1.5050617046    3.7610203381
P       -3.5351942032   -2.4298746726    3.4728102751
O       -3.5766026120   -3.2986215799    4.8697977626
C       -4.1070761995   -2.6507891025    6.0319330579
O       -4.6122587467   -1.3990132728    3.4310789975
O       -3.1347516749   -3.3636722814    2.3705588428
H       -1.7667301980    0.3429192198    2.8622086846
H       -0.3973017312    1.3808418461    3.3667805460
H       -0.8093042696    1.2511244234    1.6324411335
H        2.1966573925   -0.7696237748    1.9394463428
H        1.4779176005    0.7169614140    1.2629066070
H        1.8934988548    0.6370253837    2.9961946058
H        0.3547639003   -2.1794993731    1.2149601499
H       -1.3334532673   -1.6592364653    1.4866404549
H       -0.2649545740   -0.7229571467    0.3901398373
H        1.1903239317   -1.7760884694    3.7596959236
H        0.2198332284   -0.5147832263    4.5648389648
H       -0.8590658775   -3.0443799619    3.1543271632
H       -0.8364996489   -2.7083606961    4.8867034677
H       -4.1594336768   -3.4076990349    6.8193717603
H       -5.1026370349   -2.2464165953    5.8305078077
H       -3.4531565748   -1.8309608098    6.3577248693
28   
torsion grid (180,)
C       -1.0605488996    0.3613474263    2.5661225508
N       -0.0033893776   -0.6814663567    2.2655320483
C        1.3244526310    0.0031949437    2.1428069874
C       -0.3403341288   -1.3551687972    0.9574952232
C        0.0846076500   -1.7083265724    3.4119780598
C       -0.9705261573   -2.7972498188    3.3124500603
O       -2.2165034704   -2.1650444015    3.1742138299
P       -3.5902083036   -3.2080341805    3.0405908741
O       -3.5736618355   -3.8278213877    4.5688806717
C       -4.1210107525   -3.0182084201    5.6133943471
O       -4.7177216745   -2.2477258425    2.8574828221
O       -3.1523732352   -4.2930692338    2.1107515336
H       -2.0089286317   -0.1508562873    2.7166142078
H       -0.7639937474    0.8957802023    3.4697147202
H       -1.1021214128    1.0513521115    1.7217325548
H        2.0752425442   -0.7220140672    1.8269301979
H        1.2489199523    0.8028467526    1.4046014956
H        1.5991710895    0.4216099492    3.1120650261
H        0.3909670830   -2.1408639650    0.7662783305
H       -1.3423984691   -1.7760366186    1.0271246800
H       -0.2917805142   -0.6026539625    0.1692136173
H        1.0887291836   -2.1384841096    3.3687348487
H       -0.0212909192   -1.1309285780    4.3322280257
H       -0.7770794297   -3.4852709418    2.4806326478
H       -0.9118825194   -3.3928889755    4.2354846860
H       -4.1304633454   -3.6315332445    6.5189869809
H       -5.1363160491   -2.6963541296    5.3660723693
H       -3.5021120716   -2.1268021630    5.7861904625
