21   
torsion grid (-165,)
C        1.7634572476   -0.8611919226    1.2765054779
C        0.4768255411   -0.0453375190    1.4555345930
C        0.0921417937    0.8008727257    0.2226880432
H        0.9284633426    1.4806092050    0.0135643278
C       -1.1432376973    1.6685714669    0.5309251332
C       -0.1180985841   -0.0393419190   -1.0274179514
C       -1.1560668638   -1.1358552119   -0.9724808264
C        0.5917559012    0.1893974272   -2.1414269422
H        1.8554296830   -1.6322045371    2.0488567598
H        2.6525594209   -0.2223595864    1.3155669428
H        1.7720890943   -1.3723402993    0.3080291551
H       -0.3559314191   -0.7175550577    1.6975589217
H        0.5793151372    0.6244429906    2.3181732544
H       -1.4286730213    2.2707489140   -0.3375786195
H       -2.0052869056    1.0555587449    0.8159341566
H       -0.9347067609    2.3484277363    1.3644881491
H       -2.1357718787   -0.7491924804   -0.6696391082
H       -0.8805134541   -1.9061100060   -0.2422999649
H       -1.2698106290   -1.6213592257   -1.9453556301
H        0.4386513893   -0.3927096334   -3.0479188788
H        1.3493754814    0.9693692411   -2.1825276455
21   
torsion grid (-150,)
C        1.8228477985   -1.0363589550    1.2555413436
C        0.5545078844   -0.1779514629    1.4037669106
C        0.2239803326    0.6821573317    0.1644798037
H        1.0846501037    1.3362458628   -0.0271025101
C       -0.9901764921    1.5874080782    0.4488073099
C        0.0111505643   -0.1486325143   -1.0915121224
C       -1.0403484089   -1.2326171004   -1.0494829405
C        0.7303638143    0.0781999710   -2.1999829612
H        1.7550063043   -1.9589516655    1.8411482227
H        2.7215829578   -0.4927838829    1.5643695622
H        1.9676331314   -1.3391277075    0.2129048648
H       -0.3067035057   -0.8226737838    1.6175890771
H        0.6486298335    0.4847816811    2.2721457101
H       -1.2363493806    2.2019371176   -0.4229462878
H       -1.8774312435    1.0005101690    0.7106942741
H       -0.7796706943    2.2565217758    1.2905573323
H       -2.0126816332   -0.8402937970   -0.7305948811
H       -0.7675594965   -2.0202820271   -0.3370703399
H       -1.1679301130   -1.6976603844   -2.0305990575
H        0.5737353324   -0.4945393967   -3.1118128085
H        1.4989743699    0.8478436884   -2.2312241255
21   
torsion grid (-135,)
C        1.8207284019   -1.0618890934    1.2384308775
C        0.5687939692   -0.1706195391    1.3853561232
C        0.2471524488    0.6829648976    0.1388629501
H        1.1162892711    1.3235853291   -0.0592716892
C       -0.9547588710    1.6060782215    0.4166727584
C        0.0217204292   -0.1572177359   -1.1084694392
C       -1.0324504803   -1.2375765653   -1.0482137996
C        0.7338807993    0.0571030156   -2.2239979124
H        1.6432586813   -2.0767514523    1.6081873414
H        2.6807935000   -0.6509086019    1.7759569748
H        2.1099226274   -1.1611596801    0.1870000238
H       -0.3070972040   -0.7875664956    1.6182300802
H        0.6851641605    0.5051945025    2.2403535774
H       -1.1908675078    2.2195285972   -0.4585716579
H       -1.8504682573    1.0326417125    0.6796104938
H       -0.7367036775    2.2763790991    1.2556130139
H       -2.0002978106   -0.8403319532   -0.7217551994
H       -0.7538969768   -2.0208759459   -0.3332445772
H       -1.1717385338   -1.7090835216   -2.0246404734
H        0.5688985726   -0.5231274399   -3.1295899310
H        1.5043812653    0.8242825694   -2.2677987996
21   
torsion grid (-120,)
C        1.8120723921   -0.9827895339    1.2497513756
C        0.5502160381   -0.1062455420    1.4202807835
C        0.1888445895    0.7327967418    0.1746756117
H        1.0417765488    1.3900388958   -0.0377862040
C       -1.0286131319    1.6307138964    0.4649876833
C       -0.0334755014   -0.1212807216   -1.0635204845
C       -1.0733838079   -1.2142941739   -0.9858749888
C        0.6704941425    0.0901152641   -2.1847768934
H        1.5915262529   -2.0470841798    1.3790222360
H        2.5860837758   -0.7228262195    1.9785156637
H        2.2471395389   -0.8658874466    0.2524067863
H       -0.3113737634   -0.7261435690    1.6937463606
H        0.6870593145    0.5885639197    2.2568277460
H       -1.2865522116    2.2385270222   -0.4080829695
H       -1.9094881744    1.0392911742    0.7377294283
H       -0.8155581689    2.3061435356    1.3011473096
H       -2.0499429949   -0.8215227544   -0.6804558161
H       -0.7926418994   -1.9747604134   -0.2476002247
H       -1.1961280943   -1.7127533299   -1.9510624319
H        0.5108103379   -0.5037673318   -3.0824316884
H        1.4286115832    0.8687178774   -2.2416586399
21   
torsion grid (-105,)
C        1.8369944680   -0.9249201018    1.2409703881
C        0.5680810810   -0.0709790506    1.4454724836
C        0.1622028076    0.7592322521    0.2077437009
H        0.9984282745    1.4324854347   -0.0194196119
C       -1.0672030682    1.6320646608    0.5209964329
C       -0.0612636932   -0.1040030775   -1.0236022137
C       -1.1167639988   -1.1818312551   -0.9426145130
C        0.6566912451    0.0837750108   -2.1401088367
H        1.6002005421   -1.9861256369    1.1142288322
H        2.5030263420   -0.8569891763    2.1075523394
H        2.4029536094   -0.6032609861    0.3616571004
H       -0.2724654556   -0.7015663118    1.7575362460
H        0.7268731046    0.6361410964    2.2683916293
H       -1.3604323703    2.2266743080   -0.3502040632
H       -1.9275824597    1.0240969429    0.8210585177
H       -0.8482055013    2.3196242663    1.3456376042
H       -2.0988122962   -0.7651937449   -0.6910102023
H       -0.8754324775   -1.9157265001   -0.1646125740
H       -1.2099599061   -1.7163203410   -1.8916965342
H        0.5018766381   -0.5228641536   -3.0300646957
H        1.4223773509    0.8546178929   -2.2007710116
21   
torsion grid (-90,)
C        1.9178037321   -0.7436386997    1.2814498160
C        0.6240030804    0.0503606243    1.5272599919
C        0.1462284087    0.8603553866    0.3022588680
H        0.9429663403    1.5740814198    0.0576615970
C       -1.1170581093    1.6706320833    0.6460394408
C       -0.0594733180   -0.0138177099   -0.9243946390
C       -1.0889432037   -1.1159062857   -0.8348599144
C        0.6519304743    0.1843309803   -2.0431788515
H        1.7121799373   -1.7502799151    0.9035083785
H        2.4800072727   -0.8697681371    2.2133526605
H        2.5702052178   -0.2381185540    0.5626058155
H       -0.1740443578   -0.6191208037    1.8698287927
H        0.7833814578    0.7656879212    2.3437416595
H       -1.4605723717    2.2502686750   -0.2169615439
H       -1.9386140011    1.0206834613    0.9660791090
H       -0.9126103492    2.3682394054    1.4659364423
H       -2.0864675427   -0.7163864667   -0.6186473382
H       -0.8492882147   -1.8203627828   -0.0295751081
H       -1.1470342150   -1.6799564361   -1.7695407331
H        0.5130017447   -0.4338653172   -2.9277975467
H        1.3967973487    0.9746804475   -2.1108544357
21   
torsion grid (-75,)
C        1.9102869051   -0.7783111050    1.2607235852
C        0.6289575204    0.0298353393    1.4976796533
C        0.1583286198    0.8281299739    0.2627893151
H        0.9620188801    1.5299579260    0.0062173522
C       -1.0949345501    1.6576002634    0.5985189215
C       -0.0608993070   -0.0584507817   -0.9526894682
C       -1.1041216280   -1.1462140481   -0.8479101606
C        0.6493764211    0.1182756536   -2.0757012957
H        1.7188197899   -1.6722506821    0.6586059239
H        2.3404943211   -1.1134115353    2.2110897855
H        2.6668797289   -0.1803840851    0.7411248066
H       -0.1742533199   -0.6323461104    1.8440499279
H        0.7965409165    0.7482483096    2.3102049546
H       -1.4349373341    2.2281539666   -0.2718971616
H       -1.9225548341    1.0216951875    0.9309378319
H       -0.8799109127    2.3649857470    1.4072159738
H       -2.0953778695   -0.7316855388   -0.6312434717
H       -0.8703412840   -1.8459314507   -0.0367190267
H       -1.1735879164   -1.7185599269   -1.7767629609
H        0.4993523179   -0.5076092563   -2.9530800930
H        1.4049865647    0.8973435340   -2.1537941672
21   
torsion grid (-60,)
C        2.0136434555   -0.6584453976    1.2918946806
C        0.7132158921    0.1128430776    1.5378157145
C        0.2084535612    0.8952236116    0.3065349115
H        0.9950685563    1.6079333548    0.0271037078
C       -1.0499439054    1.7091499355    0.6628271951
C       -0.0270416362    0.0006937582   -0.9004035603
C       -1.0306239864   -1.1198208217   -0.7591913164
C        0.6326528463    0.2020057403   -2.0498823106
H        1.8977932766   -1.3955025475    0.4909357012
H        2.3372895696   -1.1853546876    2.1959461749
H        2.8204111246    0.0205179658    0.9920521159
H       -0.0695077594   -0.5764345287    1.8792200346
H        0.8614669425    0.8275957266    2.3571391392
H       -1.4168868268    2.2674654685   -0.2044850536
H       -1.8606664142    1.0636416318    1.0177837187
H       -0.8282581415    2.4259301967    1.4613390974
H       -2.0189685452   -0.7407529508   -0.4751060570
H       -0.7281744901   -1.8289698441    0.0205165789
H       -1.1378878025   -1.6747095698   -1.6950069531
H        0.4653795327   -0.4244337559   -2.9237393854
H        1.3623356767    1.0024739155   -2.1538274824
21   
torsion grid (-45,)
C        2.0384229370   -0.6459253564    1.3087353443
C        0.7316433518    0.1234939524    1.5392635010
C        0.2322279693    0.8970683826    0.3000214793
H        1.0223749025    1.6014374518    0.0088612273
C       -1.0188591311    1.7248572213    0.6515231670
C       -0.0185190716   -0.0060908620   -0.8976076501
C       -0.9989805454   -1.1431336195   -0.7288774310
C        0.6074310584    0.2036100883   -2.0644375115
H        2.0193231575   -1.1895298833    0.3588023936
H        2.2362451118   -1.3565549237    2.1176199594
H        2.8897485080    0.0431890857    1.2555368130
H       -0.0546329454   -0.5694321787    1.8646323894
H        0.8618586552    0.8348242993    2.3639794956
H       -1.3845554207    2.2761407376   -0.2206775221
H       -1.8332147962    1.0892704705    1.0161766343
H       -0.7890896589    2.4485180337    1.4414869110
H       -1.9742002500   -0.7862619260   -0.3786776030
H       -0.6419287933   -1.8671848991    0.0131606487
H       -1.1519683043   -1.6760817907   -1.6710540684
H        0.4237846346   -0.4242358665   -2.9339736635
H        1.3239257689    1.0132384841   -2.1876373478
21   
torsion grid (-30,)
C        2.1399406886   -0.8889097236    1.2827431396
C        0.8565452614   -0.0612980608    1.4709519057
C        0.4256717574    0.7296024760    0.2166734646
H        1.2507103707    1.4013599652   -0.0542903737
C       -0.8005239116    1.6079538801    0.5319696434
C        0.1697274796   -0.1647616265   -0.9864940008
C       -0.8360816572   -1.2814336733   -0.8327920877
C        0.8130324134    0.0357715735   -2.1455517116
H        2.2532064604   -1.2179649799    0.2449287997
H        2.1616698135   -1.7668363493    1.9355213004
H        3.0278046897   -0.2877818971    1.5109324099
H        0.0292547852   -0.7185481804    1.7660522114
H        0.9833140398    0.6433946111    2.3011534215
H       -1.1164877772    2.1745877608   -0.3496627698
H       -1.6509488901    1.0056717142    0.8699971054
H       -0.5655333493    2.3205512466    1.3304506928
H       -1.8014358222   -0.9089065180   -0.4717304263
H       -0.4914150473   -2.0257528397   -0.1051061634
H       -1.0049648728   -1.7947940417   -1.7830941574
H        0.6240461267   -0.5832103652   -3.0202689299
H        1.5490782554    0.8294271525   -2.2571893973
21   
torsion grid (-15,)
C        2.0652820981   -0.6906629663    1.3059134109
C        0.7667040424    0.1166100322    1.5192196955
C        0.2779398844    0.8737100193    0.2650049961
H        1.0761466079    1.5628581228   -0.0400725419
C       -0.9634440530    1.7225302185    0.6002605529
C        0.0137070227   -0.0489243822   -0.9146961069
C       -0.9394666088   -1.2021393026   -0.7062549608
C        0.6053004656    0.1582382915   -2.0998525375
H        2.2888232441   -0.8117383904    0.2413449151
H        2.0107458602   -1.6865974686    1.7557506522
H        2.9268486353   -0.1804367727    1.7497628400
H       -0.0378424424   -0.5466764949    1.8583177242
H        0.9038210202    0.8453032941    2.3262435915
H       -1.3160882017    2.2691986922   -0.2800028398
H       -1.7886706851    1.1016594930    0.9660538529
H       -0.7287530663    2.4511028186    1.3843528602
H       -1.9035529275   -0.8632932323   -0.3101654822
H       -0.5354239691   -1.9218270398    0.0156128422
H       -1.1261936758   -1.7350492375   -1.6423496867
H        0.4093110668   -0.4816220198   -2.9578393060
H        1.3037809731    0.9789368767   -2.2507252331
21   
torsion grid (0,)
C        1.8301818207   -1.1161799655    1.3954487985
C        0.5221295172   -0.3144066326    1.5844705582
C        0.2552334762    0.7315977828    0.4796220744
H        1.0976744838    1.4350603166    0.4825153341
C       -1.0212665970    1.5340536723    0.7947805375
C        0.1954471523    0.1152257422   -0.9090823676
C       -0.8017184199   -0.9953081030   -1.1426197866
C        1.0014547683    0.5436866606   -1.8910397450
H        2.3618055464   -0.8035922541    0.4913328004
H        1.6403978121   -2.1895373193    1.2949418585
H        2.5117419776   -0.9854545738    2.2415707074
H       -0.3363133033   -0.9930469695    1.6470604792
H        0.5440263641    0.2174354235    2.5426067045
H       -1.2148867818    2.2850712694    0.0223115763
H       -1.8999896987    0.8833272448    0.8619040955
H       -0.9214164686    2.0501772748    1.7562397935
H       -1.8189030319   -0.6877557508   -0.8744408424
H       -0.5646038293   -1.8738620565   -0.5309511031
H       -0.8078709214   -1.3075797768   -2.1902686884
H        0.9586545090    0.1216167023   -2.8930429397
H        1.7293843446    1.3351951341   -1.7242256242
21   
torsion grid (15,)
C        1.8400006344   -1.0476499930    1.3801072144
C        0.5240606342   -0.2717286078    1.5955661211
C        0.2061548463    0.7488038842    0.4804861581
H        1.0331187929    1.4696016817    0.4556429570
C       -1.0812345963    1.5267773911    0.8101794694
C        0.1360034493    0.1040981574   -0.8945794475
C       -0.8846299562   -0.9896615069   -1.1052984596
C        0.9545650444    0.4912875409   -1.8832196628
H        2.4629726460   -0.5692498023    0.6177117700
H        1.6517780082   -2.0636303678    1.0166981582
H        2.4214177881   -1.1329373791    2.3028308525
H       -0.3165116006   -0.9657275222    1.7112010181
H        0.5746873416    0.2878839783    2.5373915836
H       -1.3139457960    2.2539090037    0.0255179120
H       -1.9412786196    0.8568194283    0.9168021518
H       -0.9689802725    2.0690067484    1.7557343362
H       -1.9011530804   -0.6365950513   -0.8971217237
H       -0.7010926976   -1.8383539321   -0.4358466965
H       -0.8602049681   -1.3607689754   -2.1333054649
H        0.9103493269    0.0418495863   -2.8731972612
H        1.6949839162    1.2747127647   -1.7343605533
21   
torsion grid (30,)
C        1.8724372538   -0.9645300439    1.4166435538
C        0.5459587097   -0.2246639555    1.6549492011
C        0.1849738921    0.7814785535    0.5404401147
H        0.9902877149    1.5259325656    0.5056243572
C       -1.1214054459    1.5221215117    0.8802277026
C        0.1236196725    0.1281304011   -0.8309291244
C       -0.8933691025   -0.9694911816   -1.0393281646
C        0.9468993588    0.5101894693   -1.8175081126
H        2.5734365107   -0.3440696085    0.8481872596
H        1.7208646538   -1.8680089915    0.8158937523
H        2.3456300065   -1.2658467887    2.3561513979
H       -0.2715932828   -0.9424070121    1.7929916628
H        0.6055206109    0.3416918398    2.5928979407
H       -1.3837100350    2.2388540802    0.0952067954
H       -1.9600379718    0.8275145064    0.9985314829
H       -1.0155228067    2.0716211202    1.8222849441
H       -1.9141323080   -0.6074646106   -0.8708294132
H       -0.7330668647   -1.7991896476   -0.3407063799
H       -0.8410663240   -1.3696430324   -2.0553456116
H        0.9119257400    0.0509312352   -2.8033466608
H        1.6827237922    1.2982984831   -1.6708924050
21   
torsion grid (45,)
C        1.9073126279   -0.9111911841    1.4392414203
C        0.5773120897   -0.1864502902    1.6767550501
C        0.1973094644    0.8005707788    0.5520703414
H        0.9930407297    1.5545801378    0.5011117222
C       -1.1151030388    1.5308125345    0.8923967130
C        0.1326849601    0.1311374664   -0.8114700215
C       -0.8710521135   -0.9823945164   -0.9987899036
C        0.9403938726    0.5148812986   -1.8100993842
H        2.6796420392   -0.2117763628    1.0996956092
H        1.8125222766   -1.6715744619    0.6568741821
H        2.2615942815   -1.4064336396    2.3491584132
H       -0.2285548195   -0.9166938835    1.8219336328
H        0.6352271272    0.3853974596    2.6117197385
H       -1.3919190224    2.2338217449    0.0999943701
H       -1.9446472891    0.8282528841    1.0268305887
H       -1.0081314484    2.0941565751    1.8260947449
H       -1.8944478901   -0.6345053343   -0.8171845888
H       -0.6884261505   -1.8056945629   -0.2979996342
H       -0.8276185052   -1.3876708673   -2.0132026024
H        0.9010923340    0.0460099120   -2.7912441906
H        1.6679249610    1.3131611797   -1.6780358298
21   
torsion grid (60,)
C        1.8059242567   -1.1307404566    1.2721848479
C        0.5283548124   -0.3070088155    1.4613458116
C        0.2414677513    0.6759027720    0.3060959998
H        1.0974399088    1.3596731046    0.2383968268
C       -1.0065815969    1.5239299190    0.6163210361
C        0.1239869374   -0.0203208792   -1.0406901579
C       -0.9508002445   -1.0705426166   -1.1973254649
C        0.9451947998    0.2900175551   -2.0537738931
H        2.6844074614   -0.4796374688    1.1949761562
H        1.7645503562   -1.7331629729    0.3592712116
H        1.9662175359   -1.8075999666    2.1184503544
H       -0.3304792141   -0.9774813730    1.5923940255
H        0.6009934664    0.2721834669    2.3905184361
H       -1.2203248473    2.2234306190   -0.1983040988
H       -1.8926928917    0.8975656248    0.7661106658
H       -0.8563558525    2.1039426722    1.5336823246
H       -1.9460935904   -0.6608606230   -0.9904333263
H       -0.7998454781   -1.9018853211   -0.4984933134
H       -0.9582772812   -1.4804131360   -2.2107887739
H        0.8645250319   -0.1932200633   -3.0253752304
H        1.7259048736    1.0398727015   -1.9433333232
21   
torsion grid (75,)
C        1.8352456887   -1.1211090545    1.2908471096
C        0.5527744502   -0.2979865118    1.4665869521
C        0.2673970553    0.6778510758    0.3045176767
H        1.1264380343    1.3566090732    0.2237725628
C       -0.9732780891    1.5367358687    0.6161086191
C        0.1324970507   -0.0264198316   -1.0365714570
C       -0.9240828565   -1.0986779194   -1.1656773757
C        0.9232148601    0.2969584927   -2.0697438629
H        2.7255263343   -0.5098928371    1.4779931428
H        1.9144400026   -1.5381110313    0.2823961055
H        1.8657000915   -1.9524528246    2.0039791672
H       -0.3061792656   -0.9709278939    1.5823319622
H        0.6084537783    0.2777059559    2.3985048240
H       -1.1884594884    2.2303983945   -0.2030000417
H       -1.8622148630    0.9171093521    0.7773573561
H       -0.8130996531    2.1234465767    1.5275077079
H       -1.9166621256   -0.7218092355   -0.8940025770
H       -0.7137930642   -1.9443617271   -0.5001080381
H       -0.9756634826   -1.4814781477   -2.1883901456
H        0.8254418825   -0.1871813449   -3.0393164438
H        1.6941871369    1.0594086842   -1.9786403354
21   
torsion grid (90,)
C        1.8079687841   -1.1528685451    1.2907302565
C        0.5328180169   -0.3066644885    1.4517369651
C        0.2648820383    0.6630323012    0.2800607896
H        1.1324775646    1.3301875190    0.1938253560
C       -0.9652175191    1.5409911862    0.5805800861
C        0.1214193751   -0.0512590954   -1.0549331244
C       -0.9275429388   -1.1328375163   -1.1662022363
C        0.8988664532    0.2717144576   -2.0983467616
H        2.6789316848   -0.6491806846    1.7239262795
H        2.0213754389   -1.3707215644    0.2401230707
H        1.7128296185   -2.1095012938    1.8162263428
H       -0.3382327303   -0.9640919379    1.5622222483
H        0.5840868654    0.2740246679    2.3801781473
H       -1.1653002362    2.2341908556   -0.2426215277
H       -1.8639197367    0.9346656816    0.7385192753
H       -0.8023999381    2.1288464650    1.4908123019
H       -1.9159439308   -0.7703869041   -0.8617790838
H       -0.6882259575   -1.9832933646   -0.5166896630
H       -1.0041327622   -1.5051436541   -2.1912201051
H        0.7929590748   -0.2170772404   -3.0647198336
H        1.6661180785    1.0392953242   -2.0194017396
21   
torsion grid (105,)
C        1.7329930628   -0.9946545946    1.3105401991
C        0.4510024361   -0.1534180939    1.4911527161
C        0.1365468452    0.7863013726    0.3062828254
H        0.9895977919    1.4665349139    0.1853515383
C       -1.1020216790    1.6477922184    0.6186787171
C       -0.0261446834    0.0406535672   -1.0090481399
C       -1.0465374915   -1.0718514273   -1.0657449704
C        0.7108528671    0.3627743232   -2.0817075183
H        2.5554304796   -0.6128990750    1.9240280499
H        2.0637274672   -1.0083718021    0.2677695681
H        1.5752298455   -2.0347144043    1.6149124618
H       -0.4117984389   -0.8110430382    1.6496399897
H        0.5251077357    0.4559138999    2.3990690766
H       -1.3330365189    2.3216051958   -0.2124327956
H       -1.9857634147    1.0285847891    0.8080010967
H       -0.9296358308    2.2554680781    1.5140569123
H       -2.0356968077   -0.7301698724   -0.7402829768
H       -0.7639923552   -1.9000390927   -0.4049881876
H       -1.1421617854   -1.4694646376   -2.0795956328
H        0.5907848344   -0.1492612162   -3.0342783681
H        1.4573656254    1.1535211895   -2.0417327673
21   
torsion grid (120,)
C        1.7413974450   -0.9999796624    1.2993021094
C        0.4631473483   -0.1510342381    1.4861435362
C        0.1415526437    0.7800257551    0.2962360730
H        0.9949962247    1.4584246951    0.1697678597
C       -1.0959645954    1.6429526720    0.6070403131
C       -0.0226574400    0.0235879454   -1.0125002659
C       -1.0569916284   -1.0762600922   -1.0635651246
C        0.7260134329    0.3240153828   -2.0833484177
H        2.4818331185   -0.7933024766    2.0782262677
H        2.2163035116   -0.7963854080    0.3344852898
H        1.5286720381   -2.0732177556    1.3283911239
H       -0.4010133952   -0.7982124752    1.6753237851
H        0.5580312230    0.4772260386    2.3792450294
H       -1.3286316068    2.3125209878   -0.2271022040
H       -1.9794129238    1.0250791346    0.8016149957
H       -0.9214593280    2.2553976515    1.4987798259
H       -2.0489475458   -0.7111955970   -0.7737664307
H       -0.8040069764   -1.8889751694   -0.3724400450
H       -1.1331569189   -1.5012468644   -2.0679043430
H        0.6086521666   -0.1995320238   -3.0299777620
H        1.4798498024    1.1080274925   -2.0480266785
21   
torsion grid (135,)
C        1.7298329701   -0.8591447658    1.3080935957
C        0.4319689984   -0.0525945998    1.5211209801
C        0.0451481626    0.8451610526    0.3251721242
H        0.8704283077    1.5514877304    0.1698669942
C       -1.2163065728    1.6661328258    0.6509384114
C       -0.1154527377    0.0574260608   -0.9651680547
C       -1.1472936981   -1.0458032409   -0.9898164586
C        0.6356302170    0.3312314111   -2.0413633325
H        2.3782787185   -0.8196866190    2.1889123892
H        2.3089275758   -0.4510718293    0.4728709313
H        1.5334633744   -1.9093230470    1.0720971244
H       -0.4014576179   -0.7221437036    1.7637757180
H        0.5442444413    0.6036464683    2.3924772228
H       -1.4969083426    2.3076608682   -0.1906367645
H       -2.0695588676    1.0196191053    0.8830301832
H       -1.0421495594    2.3049662813    1.5240243824
H       -2.1475174324   -0.6664851242   -0.7511015356
H       -0.9176278713   -1.8207747229   -0.2489955649
H       -1.1928979237   -1.5228425773   -1.9724013761
H        0.5259872641   -0.2209978313   -2.9725048375
H        1.3842414752    1.1208408070   -2.0262711821
21   
torsion grid (150,)
C        1.7432502767   -0.8346220340    1.2785505302
C        0.4498455087   -0.0344247801    1.5037548525
C        0.0418395922    0.8435616827    0.3006397431
H        0.8594604904    1.5549767897    0.1292758263
C       -1.2242141265    1.6568352122    0.6267282127
C       -0.1192399982    0.0350441577   -0.9766728901
C       -1.1705290155   -1.0498969629   -0.9914185388
C        0.6487389079    0.2740887951   -2.0491039277
H        2.2785268380   -1.0015355808    2.2189617322
H        2.4264097405   -0.2834107351    0.6223443976
H        1.5562686680   -1.8016759038    0.8022604500
H       -0.3735502842   -0.7062850096    1.7747169370
H        0.5809232241    0.6357647328    2.3624684007
H       -1.5190834501    2.2838053752   -0.2210467697
H       -2.0689408011    1.0057635306    0.8763607909
H       -1.0477814957    2.3098441653    1.4887741030
H       -2.1707299547   -0.6415900540   -0.8062038324
H       -0.9842178380   -1.7960119959   -0.2098925743
H       -1.1908913648   -1.5680135459   -1.9538620542
H        0.5423030848   -0.2971543741   -2.9690913190
H        1.4092807191    1.0522588059   -2.0417614415
21   
torsion grid (165,)
C        1.7870044808   -0.7421779568    1.3179171472
C        0.4818513462    0.0261349608    1.5564830516
C        0.0398407120    0.8901992695    0.3558335506
H        0.8385536448    1.6197543488    0.1711310790
C       -1.2399119971    1.6764751045    0.6955730866
C       -0.1200641621    0.0758165071   -0.9180471123
C       -1.1457186771   -1.0335025413   -0.9168303617
C        0.6256816394    0.3324537645   -2.0019822747
H        2.2000464297   -1.1218063335    2.2585773240
H        2.5445747120   -0.0869128241    0.8722243592
H        1.6469931326   -1.5842091611    0.6331895251
H       -0.3206219167   -0.6695005238    1.8321063755
H        0.6065824205    0.6955858134    2.4170696214
H       -1.5600155207    2.2931204033   -0.1506186341
H       -2.0664382934    1.0077190737    0.9590714261
H       -1.0667082827    2.3368807202    1.5525893668
H       -2.1515619306   -0.6494489916   -0.7115433771
H       -0.9274525086   -1.7773475027   -0.1413743052
H       -1.1717996085   -1.5492336895   -1.8804245964
H        0.5181300021   -0.2410985522   -2.9204085042
H        1.3688742521    1.1272051715   -2.0055609375
21   
torsion grid (180,)
C        1.7326644220   -0.8755652210    1.2573138320
C        0.4533012287   -0.0559201481    1.4520442731
C        0.0663544569    0.7993893279    0.2266197343
H        0.9004071083    1.4853275686    0.0299873838
C       -1.1756919026    1.6561863524    0.5369761336
C       -0.1282231043   -0.0324298086   -1.0313842604
C       -1.1867678834   -1.1101207335   -1.0042392682
C        0.6135181428    0.1856444462   -2.1265040671
H        1.9640767769   -1.4636123935    2.1519978899
H        2.5893394587   -0.2238399513    1.0503708017
H        1.6402120245   -1.5674893865    0.4140635395
H       -0.3795069638   -0.7223609085    1.7100719822
H        0.5764753877    0.6161816201    2.3106745214
H       -1.4603426630    2.2652462019   -0.3270866832
H       -2.0354194275    1.0354350646    0.8117479024
H       -0.9753680880    2.3293097144    1.3779901380
H       -2.1737594745   -0.6981999624   -0.7646903903
H       -0.9659429814   -1.8655359511   -0.2407520546
H       -1.2581067916   -1.6185622276   -1.9694085212
H        0.4765348973   -0.3953787149   -3.0362733058
H        1.3827855933    0.9548997122   -2.1481056565
