18   
torsion grid (-165,)
C       -2.4588464443    0.6074628526    0.0186627207
C       -0.0043683485    1.0320659026    1.8485400654
C        0.7924743520    0.9846137838    3.8676719734
C        0.3327976883   -0.3109691920   -0.2550738377
C       -0.0889632918    1.0408194484    0.3378371298
N       -3.3284373674   -0.1564881235    0.1876284396
N        1.1173963307    1.1216617231    2.4975094522
N       -1.1241095389    0.9173459076    2.6494898761
N       -0.6020017071    0.6806409860    3.9392392918
N       -1.4216287963    1.4397418147   -0.1732355846
O        1.5172343169    1.1022535383    4.8341285579
H       -0.4636411422   -1.0528887036   -0.1466923039
H        0.5323015843   -0.1929655209   -1.3231493977
H        1.2350701522   -0.6694096624    0.2424860166
H        0.5985693396    1.8113291212   -0.0175955327
H       -1.8747056069    0.2863818273    2.3678704858
H       -1.1127677682    1.1446413067    4.6857240344
H       -1.6554221216    2.4190750635   -0.0393971413
18   
torsion grid (-150,)
C       -2.4723461923    0.5929511652    0.0454789078
C       -0.0073218534    1.0359994757    1.8526264783
C        0.8003955207    1.0066759019    3.8677367646
C        0.3308299446   -0.3131095729   -0.2589177540
C       -0.0996449568    1.0377969863    0.3427066065
N       -3.3381296045   -0.1728715468    0.2253297833
N        1.1167321767    1.1409684528    2.4953666707
N       -1.1214054243    0.9127755507    2.6599799837
N       -0.5903452618    0.6881232812    3.9480579144
N       -1.4393336219    1.4270051710   -0.1617894444
O        1.5286156341    1.1370448399    4.8299498651
H       -0.5281747669   -0.9790208313   -0.3772707973
H        0.7493160883   -0.1512890014   -1.2552115676
H        1.0866089167   -0.7891394138    0.3668775633
H        0.5694715407    1.8189793381   -0.0231900595
H       -1.8668760345    0.2728078773    2.3851029582
H       -1.1023946931    1.1498842512    4.6950546757
H       -1.6760828463    2.4060066640   -0.0300391428
18   
torsion grid (-135,)
C       -2.4975171319    0.6029058818    0.0498191501
C        0.0021628447    1.0506761256    1.8057044624
C        0.8527322237    1.0494629512    3.8036066768
C        0.2978859534   -0.3214682336   -0.3027331778
C       -0.1200124819    1.0413490885    0.2982840255
N       -3.3582114648   -0.1644518274    0.2466857517
N        1.1353509180    1.1941197092    2.4250788861
N       -1.0893100037    0.8904334746    2.6359654094
N       -0.5247350830    0.6836234681    3.9127649147
N       -1.4674393333    1.4347063316   -0.1805202425
O        1.5960267548    1.2037340415    4.7507144436
H       -0.5762476236   -0.8771428412   -0.6500613781
H        0.9421863509   -0.1616354063   -1.1698523076
H        0.8464892672   -0.9221036367    0.4237301834
H        0.5457959094    1.8195189153   -0.0785366762
H       -1.8229509361    0.2310173712    2.3762507919
H       -1.0360552674    1.1289869741    4.6701778555
H       -1.6984473323    2.4143831773   -0.0433126300
18   
torsion grid (-120,)
C       -2.5096069579    0.6077390035    0.0557809738
C       -0.0038443746    1.0666088224    1.8027275488
C        0.8642408618    1.0886036869    3.7927585939
C        0.2711373773   -0.3247235734   -0.2889106337
C       -0.1388265683    1.0516415019    0.2963958809
N       -3.3609689799   -0.1719662968    0.2438398936
N        1.1268959361    1.2596534260    2.4128876117
N       -1.0792839622    0.8487879648    2.6414356512
N       -0.4932779768    0.6564136488    3.9115341479
N       -1.4872009471    1.4511761789   -0.1699280674
O        1.6084067970    1.2700531039    4.7342009338
H       -0.5438561205   -0.7502544703   -0.8779237128
H        1.1409081998   -0.2147628886   -0.9383642055
H        0.5300643900   -1.0333938359    0.4997606329
H        0.5424269403    1.8202252994   -0.0718986350
H       -1.7837758104    0.1584612348    2.3817548289
H       -1.0165836313    1.0743244001    4.6764953196
H       -1.7215515513    2.4257151407   -0.0033974834
18   
torsion grid (-105,)
C       -2.5122234735    0.5692877318    0.0645388144
C       -0.0050063630    1.0736151358    1.7992985776
C        0.8838883296    1.0899414208    3.7802685351
C        0.2684718557   -0.3154179891   -0.2798619678
C       -0.1551512719    1.0589067751    0.2934550143
N       -3.3434103943   -0.2319665875    0.2517559877
N        1.1326794581    1.2618244582    2.3979287364
N       -1.0726235068    0.8589362445    2.6489730494
N       -0.4738169516    0.6626471605    3.9126794194
N       -1.5110338434    1.4388388860   -0.1597613944
O        1.6385454977    1.2674480248    4.7141096772
H       -0.4117082203   -0.6175384178   -1.0790099113
H        1.2882138814   -0.2683766790   -0.6629437587
H        0.2337511112   -1.0936040555    0.4863070379
H        0.5286835561    1.8298434082   -0.0664030214
H       -1.7807289993    0.1697718556    2.3959543867
H       -0.9875903102    1.0808805236    4.6838623498
H       -1.7646490111    2.4055069705    0.0239816745
18   
torsion grid (-90,)
C       -2.5200809986    0.5336151219    0.0620637800
C        0.0072986235    1.0749424646    1.7637136448
C        0.9284504563    1.0808589685    3.7299998457
C        0.2594200577   -0.3031672547   -0.3132931979
C       -0.1697703842    1.0624006777    0.2600216580
N       -3.3375893904   -0.2795583268    0.2576669258
N        1.1575471379    1.2440436686    2.3429998659
N       -1.0508670823    0.8816502151    2.6314135460
N       -0.4341884315    0.6783806867    3.8857671157
N       -1.5369600652    1.4215894506   -0.1693957280
O        1.7015684550    1.2476420482    4.6505504312
H       -0.2504978128   -0.4853232334   -1.2621572623
H        1.3408880271   -0.3278896888   -0.4497520630
H       -0.0165119262   -1.1185549934    0.3611562571
H        0.5048667794    1.8375737592   -0.1096331003
H       -1.7694254295    0.1982667220    2.3918602836
H       -0.9276042196    1.1080564145    4.6638927475
H       -1.8048137515    2.3832142094    0.0199309951
18   
torsion grid (-75,)
C       -2.5272704182    0.5030584865    0.0780387246
C        0.0131362918    1.0690458246    1.7529080862
C        0.9504406346    1.0760020875    3.7112791184
C        0.2611846674   -0.2962217385   -0.3307838174
C       -0.1773226962    1.0564240745    0.2509019112
N       -3.3381323257   -0.3130211054    0.2888434577
N        1.1701451735    1.2277599341    2.3216162541
N       -1.0398449842    0.8923036774    2.6303129975
N       -0.4152492966    0.6902568209    3.8804877132
N       -1.5534354616    1.3968572911   -0.1676414752
O        1.7329723796    1.2394616015    4.6244652605
H       -0.0501250678   -0.3657373107   -1.3759053243
H        1.3445383342   -0.3948928615   -0.2500252468
H       -0.2017097592   -1.1267791613    0.2101401025
H        0.4795001924    1.8395922926   -0.1345584299
H       -1.7678280849    0.2153141685    2.4011235719
H       -0.8980058140    1.1284361993    4.6605128536
H       -1.8289871660    2.3583344810    0.0104874372
18   
torsion grid (-60,)
C       -2.5379571008    0.4855409247    0.1024766173
C        0.0182646169    1.0645378308    1.7446687516
C        0.9696378283    1.0780067627    3.6962497919
C        0.2605698006   -0.2899401881   -0.3530308991
C       -0.1838249011    1.0507932645    0.2446270028
N       -3.3459404446   -0.3281342348    0.3332055208
N        1.1804333632    1.2185760320    2.3041950464
N       -1.0291777637    0.8999172808    2.6306557468
N       -0.3972307899    0.7025278227    3.8774003153
N       -1.5685222401    1.3775675773   -0.1634836985
O        1.7596937881    1.2421995712    4.6028477296
H        0.1626917412   -0.2580892372   -1.4407727218
H        1.3028083108   -0.4742180761   -0.0860965141
H       -0.3473189603   -1.1151374367    0.0288548271
H        0.4499962873    1.8435142449   -0.1593434303
H       -1.7641015601    0.2271354693    2.4113572538
H       -0.8722416932    1.1471838163    4.6584777804
H       -1.8463163536    2.3411725155   -0.0017292059
18   
torsion grid (-45,)
C       -2.5478098729    0.4743920397    0.1250854536
C        0.0223980422    1.0611478469    1.7383060083
C        0.9861746656    1.0893769887    3.6834504031
C        0.2576403539   -0.2915910656   -0.3727393225
C       -0.1884248490    1.0431301848    0.2400611390
N       -3.3543297060   -0.3358396436    0.3729699812
N        1.1874574198    1.2235296669    2.2894873265
N       -1.0181273709    0.8954725934    2.6317862784
N       -0.3775948363    0.7080270601    3.8753516951
N       -1.5799526365    1.3616133091   -0.1599408078
O        1.7811563649    1.2619398794    4.5841979168
H        0.3853706903   -0.1804693035   -1.4517885776
H        1.2190748780   -0.5789558628    0.0584269073
H       -0.4661027378   -1.0855061915   -0.1701493911
H        0.4230588988    1.8444432324   -0.1801870354
H       -1.7528299549    0.2197983568    2.4208538413
H       -0.8501691484    1.1535249407    4.6574222541
H       -1.8571829866    2.3277500750   -0.0135507207
18   
torsion grid (-30,)
C       -2.5585762164    0.4603465777    0.1508959766
C        0.0199830913    1.0652334547    1.7411441846
C        0.9933362951    1.1111516955    3.6815258347
C        0.2525690671   -0.2925637166   -0.3793360070
C       -0.1992865602    1.0406836650    0.2445553668
N       -3.3592861912   -0.3531866956    0.4067628492
N        1.1858164350    1.2423862047    2.2860544294
N       -1.0140834633    0.8917439059    2.6405781656
N       -0.3653347945    0.7160370217    3.8815118122
N       -1.5969914057    1.3508245262   -0.1458689179
O        1.7907579031    1.2959394193    4.5776785829
H        0.6130212012   -0.1290587449   -1.3968684577
H        1.0850816932   -0.6994968542    0.1987056744
H       -0.5567324476   -1.0265934214   -0.3849593901
H        0.3923332365    1.8511136382   -0.1855289795
H       -1.7418961952    0.2067916737    2.4355926616
H       -0.8388915437    1.1588605063    4.6644898681
H       -1.8777448638    2.3153518249    0.0051979672
18   
torsion grid (-15,)
C       -2.5684801543    0.4491851940    0.1656348048
C        0.0200846589    1.0730066797    1.7320804228
C        1.0136943012    1.1331807632    3.6618448148
C        0.2469459523   -0.2957903166   -0.3881888871
C       -0.2122073661    1.0418862707    0.2377759111
N       -3.3609423100   -0.3707566614    0.4267342687
N        1.1888354517    1.2683049101    2.2644476006
N       -1.0014921093    0.8826957213    2.6422114083
N       -0.3364607270    0.7162843809    3.8760307606
N       -1.6147140331    1.3449460827   -0.1404299566
O        1.8176906739    1.3298690714    4.5495593206
H        0.8408419901   -0.1115654133   -1.2850491639
H        0.8849088629   -0.8402498395    0.3108908576
H       -0.6062958817   -0.9291891706   -0.6392201235
H        0.3712504463    1.8578800632   -0.1920412303
H       -1.7204920712    0.1864290667    2.4443343701
H       -0.8081798533    1.1520577738    4.6640731399
H       -1.8986075492    2.3080485555    0.0139986259
18   
torsion grid (0,)
C       -2.5858052572    0.4619905443    0.1704336683
C        0.0184752659    1.0926720357    1.7083113986
C        1.0386263277    1.1910758667    3.6226080356
C        0.2113102552   -0.3094776050   -0.3850933555
C       -0.2341051974    1.0483655520    0.2175650325
N       -3.3735931622   -0.3614241036    0.4341096062
N        1.1817724915    1.3541287676    2.2242363458
N       -0.9742595129    0.8313279616    2.6325833049
N       -0.2799576265    0.6894764304    3.8541116980
N       -1.6360645341    1.3598826195   -0.1442677088
O        1.8442653851    1.4255715067    4.4994899741
H        1.0231861897   -0.1582903585   -1.0980521993
H        0.5696230245   -0.9911092024    0.3884880312
H       -0.6192961602   -0.7899754034   -0.9060211629
H        0.3687990431    1.8506800676   -0.2105828667
H       -1.6571069483    0.0992069115    2.4373415902
H       -0.7626529266    1.0918371380    4.6533606993
H       -1.9148438541    2.3220372940    0.0253607726
18   
torsion grid (15,)
C       -2.5913413068    0.4300103464    0.1795302404
C        0.0170738483    1.1030853738    1.6933364834
C        1.0627336567    1.2040180888    3.5936413201
C        0.1971409290   -0.3050197229   -0.3829162871
C       -0.2551035565    1.0534841717    0.2052815588
N       -3.3573921760   -0.4126983592    0.4457999213
N        1.1873964639    1.3647557786    2.1933231041
N       -0.9634465832    0.8445486654    2.6312618328
N       -0.2530628235    0.7043430735    3.8435907227
N       -1.6630391720    1.3498041381   -0.1385389228
O        1.8799678193    1.4398328224    4.4594420643
H        1.1678524529   -0.1953069945   -0.8684121848
H        0.2670251322   -1.0829745802    0.3793094749
H       -0.5148168907   -0.6320990265   -1.1445420840
H        0.3528491033    1.8540616128   -0.2198589732
H       -1.6496567668    0.1127932206    2.4467807880
H       -0.7249117427    1.1071173515    4.6490329086
H       -1.9549562428    2.3039646242    0.0536630628
18   
torsion grid (30,)
C       -2.3145297033    0.8337822077   -0.2103536389
C        0.0188070441    1.0035009941    1.8161540420
C        0.6695591273    0.8541468038    3.8822615352
C        0.3564216350   -0.3554316770   -0.2622824150
C        0.0377790946    1.0430600981    0.3025915238
N       -3.2472891892    0.1307359383   -0.1514547212
N        1.0957982345    1.0136055384    2.5421680702
N       -1.1591411171    0.9297640283    2.5355046707
N       -0.7409265211    0.6251626901    3.8497987804
N       -1.2047883607    1.5903550683   -0.2807553532
O        1.3309268664    0.9033398725    4.8986761852
H        1.4375395883   -0.4989486823   -0.2914283343
H       -0.1022619394   -1.1545530780    0.3237243766
H       -0.0130836184   -0.4217738232   -1.2891038877
H        0.8500101035    1.7270236862    0.0480446810
H       -1.9192437965    0.3480667520    2.1825177442
H       -1.2744502297    1.0988610842    4.5740383684
H       -1.3706369389    2.5734381613   -0.0845008248
18   
torsion grid (45,)
C       -2.3316001527    0.8031069109   -0.1895349178
C        0.0162478987    1.0020999406    1.8190748425
C        0.6804362835    0.8513952319    3.8808788798
C        0.3597498038   -0.3443894163   -0.2639707078
C        0.0251437578    1.0423063664    0.3055945850
N       -3.2585835990    0.0936142830   -0.1172598585
N        1.0986755764    0.9997453530    2.5370607288
N       -1.1571988421    0.9460463374    2.5472199571
N       -0.7331003459    0.6417167923    3.8593058973
N       -1.2297174049    1.5692013473   -0.2726240858
O        1.3499317497    0.8957777923    4.8921909620
H        1.4090848422   -0.5694913358   -0.0661169734
H       -0.2660727882   -1.1270053717    0.1723166428
H        0.2061096799   -0.3362537328   -1.3462501262
H        0.8221082249    1.7384386519    0.0347626224
H       -1.9269542243    0.3720620825    2.2024438809
H       -1.2557209867    1.1237588874    4.5859416234
H       -1.4042168386    2.5530322247   -0.0884117161
18   
torsion grid (60,)
C       -2.3507748823    0.7785609173   -0.1578845795
C        0.0140822824    0.9998062620    1.8228209807
C        0.6885389149    0.8531659956    3.8817193842
C        0.3689561672   -0.3330697489   -0.2725624954
C        0.0145451139    1.0407441667    0.3094696857
N       -3.2762572975    0.0696473026   -0.0627941958
N        1.1004248981    0.9892903352    2.5348819521
N       -1.1553400233    0.9590658561    2.5579100340
N       -0.7269964573    0.6580971636    3.8689863993
N       -1.2525755837    1.5460705230   -0.2638045986
O        1.3641881197    0.8957898727    4.8890817986
H        1.3357856227   -0.6508021456    0.1219211638
H       -0.3806812619   -1.0832209354   -0.0044861189
H        0.4242316045   -0.2674982305   -1.3618117247
H        0.7883879493    1.7556340913    0.0204521426
H       -1.9331762977    0.3913407319    2.2208725190
H       -1.2416955037    1.1473846787    4.5963739787
H       -1.4295945787    2.5340185623   -0.1074342257
18   
torsion grid (75,)
C       -2.3657320861    0.7622184787   -0.1321717609
C        0.0133175133    1.0007506244    1.8261215749
C        0.6983673373    0.8683534860    3.8822213730
C        0.3741554000   -0.3276471862   -0.2818393713
C        0.0075352249    1.0387473734    0.3134669755
N       -3.2895588723    0.0533993858   -0.0204232687
N        1.1031659358    1.0003817203    2.5329515197
N       -1.1521406056    0.9555433068    2.5667824021
N       -0.7159418450    0.6641486383    3.8770882108
N       -1.2697010085    1.5293445796   -0.2564292936
O        1.3783386881    0.9201443447    4.8862400989
H        1.2112087157   -0.7551998945    0.2730096624
H       -0.4676774730   -1.0222614693   -0.1990302547
H        0.6351677085   -0.2219692644   -1.3366337334
H        0.7585052317    1.7704863575    0.0075378296
H       -1.9292408523    0.3830391194    2.2362203389
H       -1.2307980760    1.1530746145    4.6046100611
H       -1.4480068169    2.5196114955   -0.1178111814
18   
torsion grid (90,)
C       -2.3806801091    0.7451216765   -0.1078198521
C        0.0112248595    1.0046025049    1.8292034242
C        0.7090079431    0.8880329989    3.8820946817
C        0.3764530482   -0.3256145624   -0.2893921495
C       -0.0031177807    1.0378131876    0.3168508182
N       -3.3002301395    0.0324297970    0.0144275472
N        1.1049556234    1.0164601704    2.5300703051
N       -1.1493622268    0.9534598655    2.5766387190
N       -0.7037034775    0.6726474472    3.8858149981
N       -1.2895471879    1.5170073727   -0.2462303898
O        1.3938660405    0.9506891510    4.8822057788
H        1.0390759231   -0.8666215756    0.3881600235
H       -0.5176962922   -0.9422321249   -0.4224617213
H        0.8539603239   -0.1962039745   -1.2618941153
H        0.7282959509    1.7841556980    0.0001643685
H       -1.9244316106    0.3740920979    2.2533431881
H       -1.2189890263    1.1601019684    4.6139936341
H       -1.4731463481    2.5065126359   -0.1083157282
18   
torsion grid (105,)
C       -2.4011518516    0.7553873833   -0.0844149363
C       -0.0022343111    1.0223193366    1.8406944560
C        0.7100650676    0.9372591470    3.8900312134
C        0.3531239424   -0.3291440913   -0.2716078058
C       -0.0238736682    1.0456558904    0.3287569900
N       -3.3164560708    0.0375401700    0.0394531661
N        1.0930115097    1.0881705258    2.5366917820
N       -1.1547056246    0.9135495703    2.5933198132
N       -0.6906487135    0.6522324409    3.9002027446
N       -1.3109876182    1.5277881785   -0.2289075017
O        1.3953465371    1.0316997006    4.8873961682
H        0.7818063827   -0.9812023801    0.4911200171
H       -0.5377441660   -0.8302730363   -0.6592981554
H        1.0643872320   -0.2128195532   -1.0903132966
H        0.7098757602    1.7890981311    0.0125527561
H       -1.9067890416    0.3039213040    2.2720177388
H       -1.2250250097    1.1147582202    4.6309568358
H       -1.4928338574    2.5168955590   -0.0854187561
18   
torsion grid (120,)
C       -2.4120557126    0.7513427081   -0.0719204497
C       -0.0126714530    1.0317651954    1.8535662621
C        0.7129457010    0.9679548763    3.8989658835
C        0.3260414611   -0.3419225827   -0.2400776982
C       -0.0421339137    1.0478515674    0.3414219069
N       -3.3197151178    0.0223246665    0.0412411520
N        1.0824572868    1.1410963896    2.5440240805
N       -1.1563740706    0.8730907273    2.6115672658
N       -0.6745706711    0.6243037550    3.9152644034
N       -1.3282498302    1.5350004673   -0.2093877050
O        1.3993124795    1.0864393743    4.8928826612
H        0.4760375587   -1.0789657093    0.5508454268
H       -0.4654903385   -0.7045195577   -0.8990462505
H        1.2497659970   -0.2774945461   -0.8170191569
H        0.7080207766    1.7792074312    0.0366214976
H       -1.8830953127    0.2333220351    2.2907235861
H       -1.2223121557    1.0643953248    4.6500718293
H       -1.5159163970    2.5192055914   -0.0405504552
18   
torsion grid (135,)
C       -2.4271996282    0.7244072745   -0.0655068641
C       -0.0123447046    1.0421834840    1.8365183464
C        0.7439309290    0.9743289441    3.8708046345
C        0.3057064682   -0.3347774852   -0.2430993476
C       -0.0640320222    1.0572873738    0.3240871579
N       -3.3180861440   -0.0239775426    0.0533644706
N        1.0932879397    1.1486407903    2.5106516287
N       -1.1447300536    0.8847514237    2.6114744299
N       -0.6437959884    0.6333204783    3.9075687937
N       -1.3602398101    1.5305958868   -0.2090963086
O        1.4454359570    1.0901932989    4.8544363547
H        0.1912894998   -1.1215953814    0.5054266241
H       -0.3055268032   -0.5701380237   -1.1162079732
H        1.3555362180   -0.3363747021   -0.5420906170
H        0.6906060645    1.7858109355    0.0223670364
H       -1.8768432493    0.2460668563    2.3008655772
H       -1.1796691121    1.0730406068    4.6512736785
H       -1.5634024441    2.5090429008   -0.0249062649
18   
torsion grid (150,)
C       -2.4295601893    0.6735264864   -0.0501578971
C       -0.0150260666    1.0384298498    1.8508396192
C        0.7477319933    0.9623148253    3.8820849049
C        0.3138460594   -0.3275546738   -0.2225193268
C       -0.0745339425    1.0548514026    0.3381260561
N       -3.3071902870   -0.0905074635    0.0674783404
N        1.0950525809    1.1249315043    2.5197524565
N       -1.1481887471    0.9054128487    2.6308675498
N       -0.6459805473    0.6485736613    3.9256447682
N       -1.3804743787    1.5034682256   -0.1889723899
O        1.4556768663    1.0677995599    4.8621576435
H       -0.0315087021   -1.1390686986    0.4226354354
H       -0.0849698145   -0.4568171058   -1.2305738175
H        1.4028543721   -0.3984203809   -0.2581530600
H        0.6723369042    1.7907454716    0.0329089943
H       -1.8880765549    0.2729158178    2.3253705801
H       -1.1701493128    1.1005822442    4.6702844648
H       -1.6047585162    2.4765579665   -0.0012141942
18   
torsion grid (165,)
C       -2.4411082253    0.6422617367   -0.0264537211
C       -0.0155378833    1.0372918570    1.8553354232
C        0.7574729048    0.9647116967    3.8829370823
C        0.3196840540   -0.3170033206   -0.2227715493
C       -0.0845405745    1.0526724584    0.3429254429
N       -3.3125110560   -0.1266092619    0.1055765065
N        1.0989283805    1.1156137934    2.5179143905
N       -1.1456187598    0.9197188277    2.6422280088
N       -0.6389444273    0.6656083740    3.9354635063
N       -1.4005068684    1.4798816732   -0.1780998890
O        1.4717752782    1.0684490535    4.8586205881
H       -0.2150374170   -1.1307757490    0.2746304088
H        0.1231290243   -0.3524620959   -1.2965713274
H        1.3859562287   -0.4691659695   -0.0439851238
H        0.6457241671    1.7990913250    0.0222374127
H       -1.8931943114    0.2924208906    2.3447114006
H       -1.1552797051    1.1253889211    4.6807587116
H       -1.6334114879    2.4536450063   -0.0057983289
18   
torsion grid (180,)
C       -2.4517899391    0.6222379217    0.0015899850
C       -0.0158142390    1.0361697011    1.8610854928
C        0.7655833892    0.9806640175    3.8864661197
C        0.3237339981   -0.3120432946   -0.2270365112
C       -0.0903510448    1.0474304574    0.3491377478
N       -3.3227389568   -0.1438805316    0.1515501619
N        1.1008693284    1.1230701901    2.5191436272
N       -1.1418844828    0.9191469330    2.6532084294
N       -0.6296347385    0.6771340288    3.9462434572
N       -1.4138434101    1.4593259091   -0.1699920199
O        1.4832586746    1.0937414459    4.8587000178
H       -0.3636975805   -1.1024529223    0.0879941720
H        0.3265947693   -0.2641640144   -1.3185676771
H        1.3248658343   -0.5617706144    0.1291073725
H        0.6206158869    1.8045678132    0.0106206925
H       -1.8900046285    0.2889652252    2.3633633713
H       -1.1450811126    1.1405727795    4.6899124685
H       -1.6495264955    2.4347226314   -0.0112053924
