25   
torsion grid (-165,)
C        5.8731193242    1.2629234358    0.2661456300
C        6.1352823242    0.2651168143   -0.6743918250
C        4.5942214572    1.3776977394    0.8212376226
C        5.1094952989   -0.6072000990   -1.0500424396
C       -0.0409915220   -0.4700206757   -3.0445200101
C        0.5089098719   -1.3392123689   -2.1267605542
C        1.8943718793    0.3270820210   -2.5582307018
C        3.5575296666    0.5101737799    0.4547673913
C        3.8286026032   -0.4961962836   -0.4979363929
C        2.1844576398    0.6617622224    1.0675896278
C        2.7458483176   -1.4518213694   -0.9431538871
N        0.8300572075    0.5671214818   -3.3055059136
N        1.7483882807   -0.8128164235   -1.8099071741
H        6.6584556757    1.9509721181    0.5683504059
H        7.1242176496    0.1667174443   -1.1136856831
H        4.3968602073    2.1575493279    1.5531440253
H        5.3044006163   -1.3819505726   -1.7884437411
H       -1.0099498944   -0.5314969862   -3.5237868934
H        0.1435824623   -2.2506896712   -1.6740597586
H        2.7844190020    0.9391706327   -2.5062818301
H        2.1667422790    1.4843226611    1.7866105337
H        1.8793297260   -0.2480493093    1.5981838006
H        1.4233500214    0.8603254243    0.3063395867
H        3.1943025031   -2.2934359818   -1.4811831162
H        2.2130127670   -1.8626131502   -0.0797824500
25   
torsion grid (-150,)
C        5.8362234592    1.2943093754    0.3521348207
C        6.1712707456    0.3059795610   -0.5749194848
C        4.5251712714    1.3816620917    0.8323121957
C        5.1856348824   -0.5838850803   -1.0123763624
C       -0.0863412046   -0.3907697631   -2.8920812856
C        0.4886355848   -1.2456270776   -1.9760063119
C        1.9615609911    0.2316260776   -2.7036165788
C        3.5280107329    0.4970550853    0.4029716265
C        3.8728555237   -0.5005254929   -0.5354019436
C        2.1178608836    0.6290678551    0.9291695273
C        2.8382407642   -1.4795463922   -1.0431426143
N        0.8402684967    0.5287781266   -3.3384687642
N        1.8031891794   -0.8335309172   -1.8556732345
H        6.5893162389    1.9957011764    0.7019958145
H        7.1856763914    0.2281426839   -0.9565520244
H        4.2707772385    2.1536312627    1.5549933145
H        5.4387231653   -1.3522902217   -1.7397838910
H       -1.1091468190   -0.3834802412   -3.2470824158
H        0.0969968863   -2.0766262258   -1.4058616618
H        2.9039105289    0.7542731359   -2.7996217341
H        2.0681754457    1.3739241608    1.7271930294
H        1.7464044535   -0.3187338642    1.3354705251
H        1.4227925544    0.9304722187    0.1388457706
H        3.3249783543   -2.2626512457   -1.6338099684
H        2.3286652138   -1.9712930786   -0.2087175569
25   
torsion grid (-135,)
C        5.8079708520    1.2632656335    0.3863063703
C        6.1697483927    0.2778279049   -0.5335011973
C        4.4821309552    1.3525116665    0.8230618288
C        5.1953542749   -0.6060530175   -1.0065914712
C       -0.1790120778   -0.2711193719   -2.6813231790
C        0.4300263723   -1.1257900350   -1.7877036286
C        1.9271509467    0.1334003783   -2.8134207337
C        3.4953567683    0.4741622970    0.3580830212
C        3.8674676900   -0.5206545738   -0.5727887263
C        2.0706571439    0.6149795173    0.8408554495
C        2.8542416384   -1.5053400294   -1.1165895907
N        0.7640967816    0.5114386722   -3.3158552969
N        1.7839541170   -0.8609781750   -1.8816261381
H        6.5513066675    1.9605038168    0.7642340026
H        7.1958436743    0.1973800093   -0.8819679150
H        4.2069951018    2.1217123835    1.5411435086
H        5.4704650983   -1.3729616298   -1.7277260644
H       -1.2352681161   -0.1739953614   -2.8979655828
H        0.0409437055   -1.8729558553   -1.1101143667
H        2.8942534523    0.5474718249   -3.0674127877
H        2.0123312000    1.3137066095    1.6792205064
H        1.6570941255   -0.3427603141    1.1758398326
H        1.4139309740    0.9827737818    0.0459160557
H        3.3568781462   -2.2442426417   -1.7488275242
H        2.3728330056   -2.0538308221   -0.3012060492
25   
torsion grid (-120,)
C        5.7640528530    1.2840511587    0.4069810699
C        6.1367655868    0.3289459207   -0.5398621772
C        4.4410806575    1.3350620056    0.8573436854
C        5.1755052664   -0.5617813323   -1.0259191926
C       -0.1750867100   -0.1729871095   -2.6311861149
C        0.4245033180   -0.9675305147   -1.6784357260
C        1.9376667403   -0.0498254846   -2.9993405532
C        3.4677060737    0.4489064203    0.3782102341
C        3.8486586735   -0.5147536288   -0.5812037129
C        2.0482085576    0.5516155682    0.8844159470
C        2.8592526714   -1.5114396170   -1.1516600907
N        0.7788444266    0.3971419669   -3.4503586499
N        1.7828307690   -0.8933302440   -1.9302771087
H        6.4966945792    1.9862845262    0.7963142544
H        7.1612574297    0.2764075668   -0.8982950005
H        4.1572344255    2.0794825180    1.5978559965
H        5.4610432885   -1.3065439895   -1.7661295288
H       -1.2310497324    0.0208430997   -2.7700964292
H        0.0260598980   -1.5682606497   -0.8729177093
H        2.9137145316    0.2071360526   -3.3909376002
H        1.9905047779    1.2271767373    1.7416735828
H        1.6570141404   -0.4216224984    1.2013614250
H        1.3736399980    0.9283270878    0.1093578680
H        3.3861704808   -2.2306276159   -1.7858204509
H        2.3799748923   -2.0839328402   -0.3520695255
25   
torsion grid (-105,)
C        5.6667240297    1.3165587000    0.2841021474
C        5.2088612957    1.3385105741   -1.0343676285
C        4.9039724536    0.6823722989    1.2695967361
C        3.9955142608    0.7234766521   -1.3574990823
C        0.8893397557   -0.4026377791   -4.1866755700
C        0.7758732553    0.0702168099   -2.8969779317
C        2.2359663736   -1.5837480051   -3.0020112365
C        3.6861036947    0.0625986160    0.9620419733
C        3.2335787871    0.0835652733   -0.3742893538
C        2.8789952941   -0.6083672682    2.0507492856
C        1.9035841613   -0.5705521006   -0.7152763527
N        1.8034840846   -1.4355080848   -4.2410423106
N        1.6467647769   -0.6944126468   -2.1413727245
H        6.6096582236    1.7890503158    0.5468748230
H        5.7899439487    1.8293163887   -1.8105809490
H        5.2598491392    0.6675032448    2.2974094095
H        3.6420707743    0.7407774554   -2.3839645551
H        0.3644111816   -0.0632628869   -5.0704207531
H        0.1808557259    0.8576956252   -2.4559108908
H        2.9730290579   -2.3030664832   -2.6668147910
H        3.3679361824   -0.5005944341    3.0220343602
H        2.7534347926   -1.6815116956    1.8621421931
H        1.8736706308   -0.1790985612    2.1368323523
H        1.8515988081   -1.5699681670   -0.2707392375
H        1.0774651964   -0.0001806029   -0.2783156263
25   
torsion grid (-90,)
C        5.6153473626    1.3875889188    0.2554803808
C        5.1910710828    1.3158458983   -1.0723007919
C        4.8552786779    0.7773264977    1.2582441016
C        4.0118191209    0.6341799240   -1.3892543029
C        0.9565253644   -0.2672810326   -4.1619593218
C        0.8997361141    0.1444969228   -2.8478047956
C        2.1311611125   -1.6782830849   -3.0490704896
C        3.6720055407    0.0915851021    0.9568473952
C        3.2510979818    0.0216223078   -0.3883271604
C        2.8692180625   -0.5612521022    2.0592900047
C        1.9675666180   -0.7241064047   -0.7201370888
N        1.7279767197   -1.4063501030   -4.2767529616
N        1.6526338972   -0.7733825135   -2.1374489760
H        6.5307506782    1.9142946445    0.5124480671
H        5.7718175284    1.7860867276   -1.8613940370
H        5.1855430384    0.8337702323    2.2931817175
H        3.6843578280    0.5813680806   -2.4229981056
H        0.4832112432    0.1853465671   -5.0238757597
H        0.4128452636    0.9785985154   -2.3621156536
H        2.7644840974   -2.5065538907   -2.7554312036
H        3.3270590527   -0.3823977986    3.0352255098
H        2.7981016302   -1.6471766091    1.9217992611
H        1.8430163052   -0.1769347556    2.0999764190
H        2.0277335748   -1.7551725812   -0.3548139496
H        1.1173631155   -0.2683435517   -0.2020993545
25   
torsion grid (-75,)
C        5.5438984483    1.4595637188    0.2759933851
C        5.1720894645    1.2961497796   -1.0594530731
C        4.7782121665    0.8655700361    1.2840481424
C        4.0373856299    0.5431246129   -1.3766202658
C        0.9697380727   -0.1365751559   -4.0750224806
C        1.0118675109    0.2121052066   -2.7424052155
C        1.9731863424   -1.7483531274   -3.0745025029
C        3.6391445831    0.1082519564    0.9827527681
C        3.2677122624   -0.0484482798   -0.3694965746
C        2.8324884438   -0.5264013007    2.0933493899
C        2.0423666529   -0.8846062708   -0.7056311825
N        1.5727041772   -1.3629385266   -4.2720071204
N        1.6483160705   -0.8370988205   -2.1030051806
H        6.4233828076    2.0436671217    0.5343979251
H        5.7587562072    1.7503681919   -1.8535480800
H        5.0698237777    0.9907104662    2.3245227087
H        3.7493662852    0.4206937078   -2.4161721958
H        0.5376938895    0.4204001202   -4.8966211873
H        0.6643683091    1.0812692714   -2.2017391228
H        2.4937403143   -2.6698236079   -2.8432556813
H        3.2933014414   -0.3400607165    3.0664876431
H        2.7497862586   -1.6126300051    1.9691635743
H        1.8103069251   -0.1301965278    2.1309797687
H        2.2218813538   -1.9351189637   -0.4512437167
H        1.1884136387   -0.5663040300   -0.0985603774
25   
torsion grid (-60,)
C        5.4809524222    1.5254261252    0.2789434210
C        5.2014622394    1.2642985821   -1.0639645311
C        4.6861452062    0.9498870321    1.2742276506
C        4.1272881919    0.4356446467   -1.3985476232
C        0.9456372205   -0.0676342134   -4.0238377355
C        1.1674655291    0.2378627327   -2.6985547819
C        1.7877560753   -1.8341977680   -3.1452494637
C        3.6061765518    0.1156697826    0.9550858436
C        3.3240533632   -0.1348694325   -0.4040740772
C        2.7762605552   -0.5004800525    2.0599908999
C        2.1795273380   -1.0655403150   -0.7722555565
N        1.3361148090   -1.3642853197   -4.2931758493
N        1.6978487296   -0.9099604422   -2.1362490032
H        6.3117650037    2.1707127221    0.5524622306
H        5.8129872826    1.7016292827   -1.8487180256
H        4.9077540333    1.1500064860    2.3201879483
H        3.9075658921    0.2378393801   -2.4434253355
H        0.5290624482    0.5696566005   -4.7934564496
H        1.0118704796    1.1368390170   -2.1192271027
H        2.1829528027   -2.8286361449   -2.9762296064
H        3.1776484919   -0.2352061519    3.0411526544
H        2.7567659420   -1.5945237147    1.9957907873
H        1.7349820735   -0.1576619840    2.0269182556
H        2.4899757476   -2.1099651574   -0.6567194705
H        1.3381871992   -0.9164836414   -0.0881366076
25   
torsion grid (-45,)
C        5.4314344530    1.6122766259    0.2995131054
C        5.3116960967    1.2102179200   -1.0337019447
C        4.5655126198    1.0856139063    1.2601298193
C        4.3247311785    0.2897361172   -1.3870411727
C        0.8068008428    0.0615803044   -3.8189478549
C        1.3018211835    0.2710832820   -2.5497314914
C        1.5693141093   -1.8335484517   -3.1640909135
C        3.5683609292    0.1580766049    0.9204929473
C        3.4495845483   -0.2372235977   -0.4268959663
C        2.6609484488   -0.3895329860    2.0020266803
C        2.4161840653   -1.2650990421   -0.8525193461
N        0.9807255061   -1.2551884102   -4.1949276018
N        1.7846451272   -0.9566315227   -2.1326097827
H        6.1929130087    2.3312213196    0.5906076576
H        5.9786841610    1.6109998430   -1.7922954580
H        4.6623552933    1.3996232023    2.2969332452
H        4.2196057916   -0.0163551054   -2.4246751793
H        0.3437342647    0.7831009746   -4.4800403983
H        1.3701718975    1.1521439121   -1.9284334500
H        1.8604211289   -2.8751896474   -3.1006452753
H        2.9181535293    0.0392489467    2.9737253863
H        2.7407505471   -1.4786390279    2.0917617418
H        1.6076541888   -0.1556114858    1.8086084727
H        2.8844386808   -2.2498940003   -0.9570771798
H        1.6381967787   -1.3639807041   -0.0912980869
25   
torsion grid (-30,)
C        5.4063855375    1.6717778671    0.3501888667
C        5.6908029211    1.0318099827   -0.8592478502
C        4.3054375097    1.2657605612    1.1088041503
C        4.8681648468   -0.0100024124   -1.2904831119
C        0.3619530582    0.1250690335   -3.0831061200
C        1.2961834882    0.1955068966   -2.0715168664
C        1.2912306806   -1.8067706561   -3.0036866380
C        3.4689714687    0.2219617036    0.6856842021
C        3.7646840658   -0.4227275263   -0.5327885861
C        2.2809602639   -0.1805253870    1.5330540295
C        2.8899474209   -1.5352097440   -1.0662643881
N        0.3673998951   -1.1280277138   -3.6603369398
N        1.8943676141   -1.0518172629   -2.0319339665
H        6.0367471515    2.4845375734    0.7016918075
H        6.5425028045    1.3404025414   -1.4593377866
H        4.0873868649    1.7705379824    2.0471610143
H        5.0769461326   -0.5078602754   -2.2351265270
H       -0.3013613733    0.9064838061   -3.4315946927
H        1.6076079652    1.0001583327   -1.4224146901
H        1.5704069978   -2.8377441631   -3.1854608303
H        2.1517478840    0.5101259688    2.3700547723
H        2.4071392202   -1.1851193095    1.9533682272
H        1.3493354549   -0.1838196898    0.9577980674
H        3.5052784389   -2.2770748861   -1.5827398484
H        2.3737948381   -2.0505298517   -0.2516091109
25   
torsion grid (-15,)
C        5.3866092273    1.6971569574    0.3955478311
C        5.7411395644    1.0645054190   -0.7984775150
C        4.2524397823    1.2768769128    1.0965761244
C        4.9535014985    0.0143762684   -1.2755383696
C        0.3360561362    0.1476480091   -2.9962897407
C        1.3997397007    0.2348940168   -2.1233172880
C        1.1096054728   -1.8438986023   -2.8103583058
C        3.4525102050    0.2253942063    0.6277193317
C        3.8174176226   -0.4118210834   -0.5769943992
C        2.2274178280   -0.1994556540    1.4067859863
C        2.9825558564   -1.5347389297   -1.1467533638
N        0.1635295697   -1.1533230777   -3.4216061025
N        1.8962547500   -1.0527209706   -2.0142149227
H        5.9888201378    2.5157729197    0.7811480885
H        6.6195279131    1.3842705278   -1.3524293477
H        3.9807331719    1.7757577176    2.0240366740
H        5.2184326668   -0.4789909914   -2.2082610732
H       -0.3045124489    0.9474796568   -3.3454251320
H        1.8518634285    1.0682544278   -1.6072415999
H        1.2780341598   -2.9099460014   -2.9058415283
H        2.0480406391    0.4761048960    2.2468067540
H        2.3429963275   -1.2098162745    1.8166806212
H        1.3283660882   -0.2026449891    0.7820627078
H        3.6151156408   -2.1966037967   -1.7450227189
H        2.5458422188   -2.1366975973   -0.3446052587
25   
torsion grid (0,)
C        5.3743742216    1.7072022967    0.4450496604
C        5.7839579914    1.0888930640   -0.7382168304
C        4.2150051196    1.2699506446    1.0936675972
C        5.0250597779    0.0371699682   -1.2586341317
C        0.3347776388    0.1602800988   -2.9432543730
C        1.4978040591    0.2512821693   -2.2082686457
C        0.9715015187   -1.8586194868   -2.5959553324
C        3.4445749811    0.2171981985    0.5825019169
C        3.8643950120   -0.4045382926   -0.6131301541
C        2.1931633775   -0.2301541765    1.3033650686
C        3.0634098638   -1.5305773320   -1.2221873847
N        0.0145248296   -1.1603724854   -3.1811490785
N        1.9048407349   -1.0546659826   -1.9951440375
H        5.9527599653    2.5268732690    0.8635169926
H        6.6822700895    1.4205583206   -1.2517243526
H        3.9007326532    1.7568808817    2.0139802114
H        5.3338523391   -0.4447629892   -2.1837381598
H       -0.2831045954    0.9688415248   -3.3126018096
H        2.0643443191    1.0938185397   -1.8418240478
H        1.0450479486   -2.9394083765   -2.5751110632
H        1.9823880726    0.4185537363    2.1570779844
H        2.2955089171   -1.2532541563    1.6846705978
H        1.3188491113   -0.2143473833    0.6448471681
H        3.7038265486   -2.1143640276   -1.8901582263
H        2.6965715103   -2.2078030227   -0.4452094296
25   
torsion grid (15,)
C        5.3189485392    1.7248344866    0.5012696537
C        5.7975688684    1.1336370240   -0.6694739219
C        4.1342678329    1.2597814302    1.0820591478
C        5.0808669917    0.0815701217   -1.2471872613
C        0.3367147290    0.1500158813   -2.9507681231
C        1.5797446260    0.2418838445   -2.3610401856
C        0.8823162776   -1.8536308327   -2.4138200190
C        3.4064320094    0.2065535502    0.5140964647
C        3.8951987561   -0.3869314291   -0.6703937219
C        2.1246689177   -0.2690046951    1.1580511332
C        3.1423929439   -1.5132601612   -1.3381630582
N       -0.0910944966   -1.1614337186   -2.9787228195
N        1.9267183708   -1.0555194078   -2.0263119878
H        5.8633184331    2.5444515358    0.9632284204
H        6.7162852514    1.4863383024   -1.1301915670
H        3.7671241177    1.7246622288    1.9941777017
H        5.4441514333   -0.3792900837   -2.1631941458
H       -0.2702821924    0.9524957170   -3.3502469736
H        2.2310929955    1.0783587703   -2.1573144420
H        0.8897768825   -2.9257514292   -2.2578211913
H        1.9074002645    0.3026401141    2.0635969833
H        2.1857541081   -1.3264287863    1.4414412991
H        1.2718994243   -0.1652601908    0.4793824715
H        3.7955384310   -2.0049332285   -2.0663067252
H        2.8405987408   -2.2687458749   -0.6065861212
25   
torsion grid (30,)
C        5.3433589071    1.7100768296    0.5672928188
C        5.8581454613    1.1360597613   -0.5963723289
C        4.1355470659    1.2439581902    1.0974528070
C        5.1533846429    0.1006819652   -1.2177206263
C        0.3169778373    0.1380619533   -2.8765006998
C        1.6283801551    0.2161560105   -2.4573739282
C        0.8145891301   -1.8114372053   -2.1323583124
C        3.4191328605    0.2074213268    0.4862177318
C        3.9448659797   -0.3686610038   -0.6913562145
C        2.1095691582   -0.2618821498    1.0758416437
C        3.2137387269   -1.4839027272   -1.4033432175
N       -0.1828956405   -1.1314633703   -2.6691348944
N        1.9411914680   -1.0459835392   -1.9854014405
H        5.8772946594    2.5166478666    1.0631704636
H        6.7952827464    1.4889129506   -1.0183018613
H        3.7407772470    1.6946999347    2.0051631877
H        5.5457535002   -0.3470599689   -2.1283159806
H       -0.2912997830    0.9227019605   -3.3082231539
H        2.3435948058    1.0251271572   -2.4397330544
H        0.7830436489   -2.8507964354   -1.8283000298
H        1.9271648534    0.2103922917    2.0442854600
H        2.0990518617   -1.3471249335    1.2281837827
H        1.2676542801   -0.0233576863    0.4176782285
H        3.8507009535   -1.8899700033   -2.1961648124
H        2.9860294074   -2.3047091921   -0.7161100343
25   
torsion grid (45,)
C        5.3447121826    1.6781819115    0.6359792693
C        5.8730181720    1.1387458701   -0.5379960073
C        4.1246180166    1.2053929881    1.1301909479
C        5.1689326685    0.1317140705   -1.2047197159
C        0.2944314802    0.1359053445   -2.9251271536
C        1.6387806252    0.1896415916   -2.6233808992
C        0.7527169157   -1.7143600005   -1.9388832552
C        3.4084873020    0.1966773360    0.4733358281
C        3.9477440476   -0.3448363292   -0.7144079835
C        2.0848958368   -0.2733408578    1.0300797796
C        3.2265442228   -1.4337423316   -1.4797799287
N       -0.2500737773   -1.0568317567   -2.4927861814
N        1.9233149093   -1.0049969650   -1.9877958139
H        5.8773422113    2.4626287161    1.1674720539
H        6.8199310747    1.4966532204   -0.9330538045
H        3.7192354905    1.6284938912    2.0465626207
H        5.5731774953   -0.2892004206   -2.1230601185
H       -0.3074161977    0.8862921289   -3.4218693523
H        2.3939951250    0.9468493538   -2.7766034727
H        0.6948681308   -2.6951883999   -1.4825040589
H        1.9226237245    0.1261549104    2.0343495811
H        2.0336284925   -1.3658072757    1.0941953932
H        1.2505336351    0.0481551632    0.3982625631
H        3.8478768829   -1.7684444251   -2.3167950810
H        3.0450686875   -2.3054050337   -0.8426993305
25   
torsion grid (60,)
C        5.3422776446    1.6595133862    0.6977443360
C        5.8477282480    1.1768337703   -0.5103498107
C        4.1390868063    1.1532765048    1.1998123381
C        5.1359480845    0.1923556569   -1.2017068613
C        0.2993376885    0.0871707375   -3.0925024075
C        1.6537769200    0.1198374923   -2.8386617088
C        0.6985965230   -1.5801770379   -1.8022561871
C        3.4159191673    0.1666878580    0.5170905494
C        3.9305281984   -0.3181650675   -0.7053094269
C        2.1135603874   -0.3404590229    1.0909685341
C        3.2074764491   -1.3815240293   -1.5068683567
N       -0.2884596254   -0.9789912336   -2.4406052443
N        1.8992100565   -0.9493159282   -1.9964679542
H        5.8803031218    2.4253380531    1.2504902955
H        6.7821422972    1.5599437303   -0.9116034845
H        3.7526429770    1.5318807219    2.1434410877
H        5.5236099634   -0.1866075752   -2.1452610392
H       -0.2809494577    0.7671166214   -3.7031975157
H        2.4395565897    0.7971240120   -3.1416665583
H        0.6091631771   -2.4635430390   -1.1817005337
H        1.9769085696    0.0152500194    2.1153307815
H        2.0753992332   -1.4352265837    1.1120518220
H        1.2576498092   -0.0024561337    0.4983137068
H        3.8230948315   -1.6859479099   -2.3586343661
H        3.0339960883   -2.2758045486   -0.8997129678
25   
torsion grid (75,)
C        6.0209211545    0.6461837163    0.0076980520
C        5.5399764937    0.4276356661   -1.2843164035
C        5.1347236108    0.6170373076    1.0889457383
C        4.1786513014    0.1793900479   -1.4852158434
C        1.2780929250   -1.5818059035   -3.8709749073
C        1.6592603230   -1.7260824611   -2.5544532867
C        0.9718898448    0.3342955531   -2.9547701951
C        3.7684887864    0.3698349781    0.9044701440
C        3.2912895202    0.1457357108   -0.4044080621
C        2.8320646152    0.3501955926    2.0917152430
C        1.8057987639   -0.1042467940   -0.6147137539
N        0.8499180591   -0.2913253581   -4.1108863601
N        1.4479162744   -0.4905573024   -1.9684922548
H        7.0773013537    0.8390757366    0.1759132319
H        6.2167421919    0.4492888884   -2.1343759751
H        5.5093597026    0.7901289878    2.0954075664
H        3.8082810870    0.0072706038   -2.4910987516
H        1.2826053196   -2.3311572151   -4.6522249735
H        2.0563787257   -2.5611023719   -1.9944732842
H        0.7297054647    1.3728444224   -2.7642425809
H        3.3683867662    0.5777187370    3.0161918099
H        2.3563140457   -0.6299036535    2.2188365633
H        2.0255227041    1.0857220966    1.9876708699
H        1.4520518525   -0.8836346591    0.0683502854
H        1.2341875945    0.7977198920   -0.3692890313
25   
torsion grid (90,)
C        6.0064425485    0.7449683907    0.0109628002
C        5.5488709572    0.4234876470   -1.2678402170
C        5.1139779220    0.7333043196    1.0875883935
C        4.2034041740    0.0945751385   -1.4610272536
C        1.1615998749   -1.5171296796   -3.9104460396
C        1.5031723079   -1.7701708604   -2.5992904982
C        1.1262889803    0.3833833329   -2.9124189311
C        3.7640292672    0.4054478795    0.9105262491
C        3.3089281344    0.0839447251   -0.3859677233
C        2.8197776231    0.4021989748    2.0914558880
C        1.8431422652   -0.2710548282   -0.5843836975
N        0.9275321737   -0.1692272842   -4.0951516673
N        1.4731785012   -0.5422083955   -1.9628073411
H        7.0498047132    1.0030409991    0.1728776756
H        6.2311563494    0.4277849311   -2.1137414559
H        5.4710404144    0.9832297685    2.0842560881
H        3.8509588480   -0.1559523130   -2.4568219646
H        1.0647825861   -2.2254494793   -4.7232876202
H        1.7616280828   -2.6778972117   -2.0721244624
H        1.0376822940    1.4374289928   -2.6789845068
H        3.3482425403    0.6482091685    3.0157146296
H        2.3451046648   -0.5762346225    2.2323129765
H        2.0119989984    1.1339372579    1.9680162969
H        1.5790277920   -1.1494672068    0.0136285251
H        1.2079556346    0.5444924778   -0.2217250450
25   
torsion grid (105,)
C        5.9944888322    0.8373690343    0.0337986278
C        5.5770343611    0.4225298415   -1.2319798883
C        5.0838811005    0.8397175333    1.0948960238
C        4.2533724518    0.0176863777   -1.4291810886
C        1.0185289630   -1.4669863447   -3.9260184232
C        1.3577611256   -1.8060448102   -2.6338400497
C        1.2738860402    0.3877374189   -2.8745471416
C        3.7548074017    0.4362289801    0.9144007258
C        3.3396824533    0.0251423523   -0.3700263392
C        2.7934690701    0.4440015720    2.0817939376
C        1.9025970553   -0.4300504657   -0.5716935412
N        0.9698627627   -0.0945917917   -4.0658042982
N        1.5212205899   -0.6065594453   -1.9639998102
H        7.0205730329    1.1564047041    0.1975070965
H        6.2745133252    0.4134801598   -2.0653235509
H        5.4098350374    1.1602631892    2.0819589457
H        3.9311348312   -0.3032392274   -2.4151218267
H        0.8042238556   -2.1290041438   -4.7551922328
H        1.4976565033   -2.7572613100   -2.1395464757
H        1.3400628943    1.4359947744   -2.6103536569
H        3.3007673380    0.7395100548    3.0034318550
H        2.3479289312   -0.5433073590    2.2512959654
H        1.9654888619    1.1454993355    1.9217179530
H        1.7297737103   -1.3814160983   -0.0582233682
H        1.2142725923    0.2903624196   -0.1172660351
25   
torsion grid (120,)
C        5.9818954730    0.9281261963    0.0577319319
C        5.6174906256    0.4295233311   -1.1944268064
C        5.0458686345    0.9390675860    1.0958631640
C        4.3196647036   -0.0469970801   -1.3982285293
C        0.8627199618   -1.4007532338   -3.9249846966
C        1.2185599490   -1.8179064073   -2.6606969150
C        1.4123266886    0.3742222700   -2.8474787483
C        3.7413466099    0.4634705678    0.9077778878
C        3.3776931518   -0.0289488457   -0.3631602120
C        2.7578024731    0.4796118539    2.0571698456
C        1.9765327797   -0.5792057197   -0.5773620610
N        0.9871090978   -0.0300997215   -4.0307876526
N        1.5799158836   -0.6709923377   -1.9759737463
H        6.9869312955    1.3052374775    0.2283108406
H        6.3352532010    0.4116710776   -2.0102312502
H        5.3320730177    1.3236944801    2.0722520523
H        4.0361227485   -0.4313390281   -2.3734023844
H        0.5265601174   -2.0055197844   -4.7574255300
H        1.2540750742   -2.7931962633   -2.1956110655
H        1.6301464217    1.3966902641   -2.5653627247
H        3.2348616873    0.8394161140    2.9720988702
H        2.3545388678   -0.5182607878    2.2649518648
H        1.9029818306    1.1355088455    1.8519702482
H        1.8987543768   -1.5841962923   -0.1497085563
H        1.2436870187    0.0376681198   -0.0478150716
25   
torsion grid (135,)
C        5.9623261557    1.0106216531    0.0646470874
C        5.6692807441    0.3960578521   -1.1551901154
C        4.9918736621    1.0485563724    1.0687767786
C        4.4078355120   -0.1666817302   -1.3578013642
C        0.6959362062   -1.2439412936   -3.9028690475
C        1.0864606851   -1.7832804956   -2.6964686012
C        1.5312995742    0.3791313094   -2.7699239121
C        3.7207531760    0.4861971838    0.8813243138
C        3.4289492089   -0.1224289155   -0.3563835686
C        2.7050038487    0.5410570541    2.0023901616
C        2.0788590996   -0.7801825941   -0.5875598297
N        0.9779616030    0.1067072563   -3.9382098988
N        1.6361710037   -0.7358642990   -1.9781486065
H        6.9384847408    1.4572578132    0.2351063121
H        6.4145488079    0.3564921346   -1.9451150630
H        5.2232078614    1.5242400010    2.0191620628
H        4.1751511964   -0.6372937932   -2.3089107586
H        0.2354011114   -1.7493940296   -4.7420667383
H        1.0365516434   -2.7854224808   -2.2938082104
H        1.8909661847    1.3478835990   -2.4478472143
H        3.1362997594    1.0071605643    2.8917310338
H        2.3564789267   -0.4572312192    2.2898100278
H        1.8202661249    1.1250179655    1.7219301134
H        2.1253179536   -1.8354270044   -0.2977624338
H        1.3130570974   -0.3165148178    0.0402431172
25   
torsion grid (150,)
C        5.9088945506    1.1229039819    0.0518758717
C        5.9435652784    0.1509558376   -0.9520164729
C        4.7555760768    1.2836246578    0.8236646145
C        4.8206328585   -0.6492365608   -1.1664537582
C        0.3320179479   -0.7853443844   -3.5696755853
C        0.9507100826   -1.6661325146   -2.7083021785
C        1.4752962578    0.4204402901   -2.2081792095
C        3.6189179749    0.4872840662    0.6170024666
C        3.6623146285   -0.4937384459   -0.3940637589
C        2.3874230140    0.7000061770    1.4715317758
C        2.4664695160   -1.3717227466   -0.6940909759
N        0.6670078132    0.5139735263   -3.2504257257
N        1.6842820018   -0.8820676172   -1.8359021050
H        6.7743294296    1.7552244565    0.2325550588
H        6.8339402106    0.0185905193   -1.5606583629
H        4.7337081620    2.0447748008    1.6001775075
H        4.8351756061   -1.4017237977   -1.9522363701
H       -0.3229805166   -1.0144619821   -4.4007717741
H        0.9387819943   -2.7447090202   -2.6332730416
H        1.9575593002    1.2480419883   -1.7057261304
H        2.5094813837    1.5757938313    2.1135813534
H        2.1947753359   -0.1600891717    2.1232995076
H        1.4885473579    0.8562369324    0.8659441962
H        2.8049979946   -2.3796189995   -0.9485234959
H        1.8113133249   -1.4605696212    0.1767615612
25   
torsion grid (165,)
C        5.9184305568    1.1946397844    0.1355798264
C        6.0329790023    0.1952335713   -0.8339835490
C        4.7147789481    1.3593622835    0.8268646497
C        4.9371941089   -0.6292844791   -1.0974635599
C        0.2003389830   -0.6397268071   -3.4002996288
C        0.7748596905   -1.5418024348   -2.5305610785
C        1.6708128172    0.4630078606   -2.2875083080
C        3.6064418866    0.5395619327    0.5710828812
C        3.7297393247   -0.4692833731   -0.4067851844
C        2.3164852901    0.7510742067    1.3330027284
C        2.5653813412   -1.3710539936   -0.7479664495
N        0.7672318126    0.6074176702   -3.2422567695
N        1.7182032294   -0.8241201197   -1.8168331883
H        6.7611766189    1.8458149012    0.3528483685
H        6.9629167151    0.0598285215   -1.3794600847
H        4.6316231892    2.1421117681    1.5773069818
H        5.0149009089   -1.4047281484   -1.8566193716
H       -0.5787817958   -0.8208378504   -4.1300687694
H        0.6070078807   -2.5954804858   -2.3549715125
H        2.3264232011    1.2378769545   -1.9148368554
H        2.3763627869    1.6467072183    1.9561665163
H        2.0976098591   -0.0954427298    1.9945543965
H        1.4599678991    0.8691591330    0.6613287152
H        2.9403341085   -2.3398449132   -1.0902116731
H        1.9425688528   -1.5556939980    0.1324257133
25   
torsion grid (180,)
C        5.8987648023    1.2200907740    0.1886373773
C        6.0896683705    0.2169431722   -0.7639082993
C        4.6534130186    1.3619888070    0.8089672731
C        5.0277795688   -0.6332610553   -1.0839588358
C        0.0517805193   -0.5623372171   -3.2241748953
C        0.6020513265   -1.4558443545   -2.3303835263
C        1.7943462737    0.4025482529   -2.4187594596
C        3.5800346314    0.5167808643    0.4981987007
C        3.7801436393   -0.4951299280   -0.4650244649
C        2.2454967864    0.6957588525    1.1860749083
C        2.6562654951   -1.4273042929   -0.8535317414
N        0.8018840721    0.5938354798   -3.2716380694
N        1.7178379648   -0.8242727132   -1.8101651797
H        6.7133388721    1.8912182212    0.4485827332
H        7.0519277986    0.0977132070   -1.2542719387
H        4.5107655173    2.1468896192    1.5481073643
H        5.1665868153   -1.4118896729   -1.8309039468
H       -0.8361395069   -0.6880699976   -3.8309717983
H        0.3124424340   -2.4503260973   -2.0198429710
H        2.5885302035    1.1039299202   -2.2035479193
H        2.2519324385    1.5826054427    1.8243826209
H        2.0054499383   -0.1655057449    1.8211977626
H        1.4285683385    0.8059028449    0.4659566529
H        3.0702198453   -2.3330972952   -1.3071822831
H        2.0873905105   -1.7350576453    0.0295414289
