13   
torsion grid (-165,)
C       -0.1461362829   -1.3613391958   -1.8019101376
C        0.0678470187   -2.7318719339   -1.7826481806
C        0.1512547798   -0.9472029227   -0.4723925999
C       -0.5714787129    1.2794878014   -0.6987376470
N        0.5054651980   -1.9664565508    0.3090036651
N        0.4556692071   -3.0427567681   -0.5204368271
O        0.1220007251    0.2975002938    0.0676948747
H       -0.4605631193   -0.7647884753   -2.6457139741
H       -0.0250106572   -3.4807537792   -2.5581977220
H       -0.5780089182    2.1868336678   -0.0931850196
H       -1.6026824691    0.9664605881   -0.9034511739
H       -0.0571150658    1.4830189040   -1.6467284817
H        0.6904820877   -3.9509449220   -0.1464300278
13   
torsion grid (-150,)
C       -0.0368998343   -1.3495772268   -1.8606987331
C        0.0864317775   -2.7291327540   -1.7981039522
C        0.2267137819   -0.9181027255   -0.5296751546
C       -0.5988753028    1.2811382349   -0.6740591513
N        0.4730520763   -1.9360319260    0.2931708516
N        0.3963320045   -3.0294456643   -0.5109587241
O        0.2652557758    0.3446224936   -0.0300674577
H       -0.2713054942   -0.7557587389   -2.7322943260
H       -0.0171093130   -3.4919688557   -2.5586323846
H       -0.5450533170    2.1978180384   -0.0846682055
H       -1.6320660775    0.9144845087   -0.6940406902
H       -0.2677854381    1.4948063213   -1.6982864567
H        0.5572352203   -3.9399359484   -0.1048042341
13   
torsion grid (-135,)
C        0.0764459892   -1.3641021859   -1.9246212619
C        0.1108463033   -2.7450741848   -1.8171497620
C        0.2820905607   -0.9067319799   -0.5924440591
C       -0.6247952645    1.2646807505   -0.6310913731
N        0.4160052598   -1.9113189579    0.2714520855
N        0.3221230072   -3.0231877687   -0.5039244422
O        0.3774321402    0.3717905610   -0.1375069775
H       -0.0606214550   -0.7821948279   -2.8248438233
H        0.0122768041   -3.5243149888   -2.5616038969
H       -0.4768358204    2.2087469210   -0.1038336230
H       -1.6294546558    0.8784088282   -0.4226380409
H       -0.5168344471    1.4358544429   -1.7094209599
H        0.4083935182   -3.9284980796   -0.0647182112
13   
torsion grid (-120,)
C        0.1897322051   -1.3768432979   -1.9796510253
C        0.1447543320   -2.7527446742   -1.8292012737
C        0.3112854704   -0.8848863387   -0.6501370817
C       -0.6667191270    1.2517141041   -0.5753087994
N        0.3283030088   -1.8647265582    0.2516432924
N        0.2350306707   -2.9956459054   -0.4937129421
O        0.4417867279    0.4081624543   -0.2422341729
H        0.1579174219   -0.8151488143   -2.9025766058
H        0.0703265069   -3.5524516225   -2.5545626164
H       -0.4307948551    2.2388898671   -0.1736168664
H       -1.5898695116    0.8773140695   -0.1171794959
H       -0.8032133555    1.3257080889   -1.6612689128
H        0.2535348936   -3.8894210973   -0.0236815681
13   
torsion grid (-105,)
C        0.2916160169   -1.4008939173   -2.0371626336
C        0.1726454775   -2.7665003658   -1.8405779877
C        0.3358681198   -0.8615757502   -0.7226223047
C       -0.6921738126    1.2395616836   -0.5229310666
N        0.2435715204   -1.8045192788    0.2142245535
N        0.1476990025   -2.9582094310   -0.4930251661
O        0.4918568823    0.4457155106   -0.3691122432
H        0.3561194931   -0.8710894026   -2.9771447934
H        0.1179797456   -3.5919630987   -2.5383157408
H       -0.4231125534    2.2541040144   -0.2226100691
H       -1.4954952832    0.8639148435    0.1217770680
H       -1.0333901991    1.2450007688   -1.5657252925
H        0.0972860903   -3.8331888201    0.0091996093
13   
torsion grid (-90,)
C        0.3848172819   -1.4335617972   -2.0938828327
C        0.2094163953   -2.7856639845   -1.8493467413
C        0.3469594271   -0.8377487019   -0.8052756284
C       -0.7097792525    1.2296220841   -0.4642249653
N        0.1602950720   -1.7358592055    0.1621967698
N        0.0762265420   -2.9158486354   -0.5005147317
O        0.5146779785    0.4827442190   -0.5099044144
H        0.5332755979   -0.9442969961   -3.0461084551
H        0.1806122793   -3.6400935735   -2.5128766616
H       -0.4331118467    2.2602163656   -0.2332141823
H       -1.3718596387    0.8399235759    0.3173106278
H       -1.2252660235    1.1954136372   -1.4324147963
H       -0.0402636287   -3.7659630613    0.0326329220
13   
torsion grid (-75,)
C        0.4669015403   -1.4705330613   -2.1441589540
C        0.2580260494   -2.8092358525   -1.8539682326
C        0.3272827202   -0.8157999824   -0.8929071065
C       -0.7245033800    1.2286187132   -0.4041975431
N        0.0551753361   -1.6675377838    0.0968657130
N        0.0088856851   -2.8757406948   -0.5172782354
O        0.4959915418    0.5159829073   -0.6578784458
H        0.6959998590   -1.0242272652   -3.1013065638
H        0.2713117174   -3.6926441696   -2.4788368948
H       -0.4429639521    2.2718206601   -0.2479809458
H       -1.2229891627    0.8407769786    0.4903842684
H       -1.4014522574    1.1542613621   -1.2646014464
H       -0.1654325396   -3.6990180853    0.0415304671
13   
torsion grid (-60,)
C        0.5489916171   -1.5122009842   -2.1754151171
C        0.3163287621   -2.8371375578   -1.8427048794
C        0.2953843578   -0.8018535056   -0.9738744514
C       -0.7166912000    1.2306167020   -0.3459614926
N       -0.0594764792   -1.6085884495    0.0275669030
N       -0.0505527238   -2.8450022737   -0.5324231366
O        0.4572221916    0.5382234695   -0.7997302344
H        0.8584958121   -1.1077132366   -3.1283613114
H        0.3827037163   -3.7472433953   -2.4243298255
H       -0.4429225209    2.2857609568   -0.2880870023
H       -1.0271653259    0.8720093511    0.6401363252
H       -1.5387938016    1.1000827971   -1.0602576269
H       -0.2899117256   -3.6408636770    0.0415245621
13   
torsion grid (-45,)
C        0.6129194979   -1.5367735457   -2.2012412787
C        0.3663154331   -2.8512326513   -1.8396542171
C        0.2391454446   -0.7863246615   -1.0562851018
C       -0.7192265927    1.2290360134   -0.2922871093
N       -0.1939152626   -1.5599465970   -0.0598878817
N       -0.1169425615   -2.8182878318   -0.5686830831
O        0.3783154961    0.5588710595   -0.9316444918
H        1.0004412380   -1.1630343320   -3.1379728497
H        0.4936024843   -3.7800625631   -2.3800828258
H       -0.4962855776    2.2956776739   -0.3539465376
H       -0.8096797092    0.9260474940    0.7550109903
H       -1.6574905690    1.0125562788   -0.8159870605
H       -0.4149910417   -3.5941122125    0.0048135612
13   
torsion grid (-30,)
C        0.6650350608   -1.5544183955   -2.2100401923
C        0.4095952213   -2.8589569995   -1.8218906464
C        0.1829789356   -0.7716555398   -1.1278287363
C       -0.7125436430    1.2259513230   -0.2501600186
N       -0.3207341374   -1.5168347846   -0.1436806750
N       -0.1782828370   -2.7929143252   -0.5974786656
O        0.2844077462    0.5776002399   -1.0535658524
H        1.1233922406   -1.2069993989   -3.1246089789
H        0.5954238754   -3.8026559607   -2.3178267190
H       -0.5534577345    2.2968880811   -0.3860611945
H       -0.6006980149    0.9603403741    0.8053543500
H       -1.7173405308    0.9474982408   -0.5862161639
H       -0.5153644638   -3.5531759555   -0.0251736865
13   
torsion grid (-15,)
C       -1.0902687866   -1.9966093909   -1.6008539057
C       -0.1686414496   -3.0272241116   -1.5316194599
C       -0.3655825035   -0.8566765993   -1.1607723674
C       -0.0921601794    1.3476935591   -0.3721928837
N        0.8985704642   -1.1430615858   -0.8502674502
N        0.9934030585   -2.4837250312   -1.0810006375
O       -0.8770790237    0.3944774244   -1.1015919043
H       -2.1229640015   -2.0436868955   -1.9146918701
H       -0.2564739895   -4.0808717730   -1.7623252785
H       -0.6783127377    2.2677547235   -0.3632902455
H        0.8714679067    1.5176071901   -0.8625608664
H        0.0854640083    0.9996431194    0.6507692434
H        1.8708379033   -2.9478795849   -0.8980852801
13   
torsion grid (0,)
C       -1.0914760093   -1.9959244855   -1.6326465606
C       -0.1601552514   -3.0181332037   -1.5736804573
C       -0.4045950008   -0.8738214939   -1.0957726310
C       -0.0861511730    1.3539468944   -0.3972542096
N        0.8445966608   -1.1637674603   -0.7331780509
N        0.9702851608   -2.4883307132   -1.0350810311
O       -0.9479313715    0.3572315838   -0.9625268109
H       -2.1066470577   -2.0371135017   -1.9999239359
H       -0.2214831369   -4.0576683407   -1.8681911282
H       -0.6773945096    2.2700739046   -0.3641519769
H        0.8029467673    1.4972590416   -1.0197525197
H        0.2292602203    1.0680752579    0.6113832578
H        1.8496969291   -2.9477745492   -0.8501881001
13   
torsion grid (15,)
C       -1.0719665242   -1.9828467618   -1.6530748515
C       -0.1407935990   -3.0063274817   -1.6109104244
C       -0.4149438599   -0.8935242396   -1.0206700613
C       -0.0751710829    1.3604531644   -0.4205779895
N        0.8146883677   -1.2058437253   -0.6120001665
N        0.9618340839   -2.5074576594   -0.9911305843
O       -0.9795899269    0.3178716963   -0.8102204657
H       -2.0683416858   -2.0027675587   -2.0702176799
H       -0.1831151688   -4.0259152097   -1.9711300166
H       -0.6771992422    2.2686436818   -0.3664859611
H        0.7227810203    1.4763521145   -1.1615128769
H        0.3731032477    1.1449723382    0.5543690584
H        1.8378466126   -2.9726197907   -0.8039823204
13   
torsion grid (30,)
C       -1.0647719545   -1.9546804859   -1.6699325873
C       -0.1412651450   -2.9864156329   -1.6501392773
C       -0.4365875703   -0.9150523889   -0.9345206428
C       -0.1027202423    1.3670251310   -0.4411807011
N        0.7685940289   -1.2648321635   -0.4842316843
N        0.9303093587   -2.5363963550   -0.9441940304
O       -1.0134022353    0.2773335913   -0.6484820996
H       -2.0388195246   -1.9386697369   -2.1370540321
H       -0.1680688533   -3.9792890704   -2.0797161361
H       -0.7242560090    2.2573444406   -0.3329772476
H        0.5675346898    1.4762385093   -1.3007879761
H        0.4947260250    1.2136522547    0.4625347206
H        1.7951428120   -3.0185589543   -0.7473737595
13   
torsion grid (45,)
C       -1.0285494145   -1.9166393186   -1.6888533197
C       -0.1220961781   -2.9643485770   -1.6871699523
C       -0.4333948281   -0.9419275297   -0.8465153186
C       -0.1218632839    1.3672247470   -0.4795701948
N        0.7375007095   -1.3445085460   -0.3507769045
N        0.9109261681   -2.5803707041   -0.8900475810
O       -1.0090509140    0.2380637542   -0.4990201331
H       -1.9726610050   -1.8508897058   -2.2100527311
H       -0.1357334369   -3.9257913415   -2.1835895145
H       -0.7480583286    2.2371312608   -0.2737418334
H        0.3712449599    1.4834448292   -1.4515953942
H        0.6362962622    1.2592131632    0.3016651326
H        1.7536917075   -3.0922906342   -0.6725225445
13   
torsion grid (60,)
C       -0.9766772084   -1.8593523673   -1.7074422028
C       -0.0949820173   -2.9282910990   -1.7223091084
C       -0.4213183067   -0.9637040740   -0.7576730276
C       -0.1452877849    1.3647800495   -0.5296397365
N        0.7061909114   -1.4299107645   -0.2183226612
N        0.8905457728   -2.6253123279   -0.8343309082
O       -0.9821435896    0.2100533621   -0.3575822537
H       -1.8832333529   -1.7335963627   -2.2817726928
H       -0.0954536005   -3.8534225157   -2.2836642349
H       -0.7350664647    2.2194493048   -0.1930169084
H        0.1203605699    1.4914872673   -1.5863140447
H        0.7659662717    1.2819554468    0.0704156432
H        1.6946829782   -3.1827300826   -0.5838418179
13   
torsion grid (75,)
C       -0.9169294248   -1.7908479674   -1.7116275242
C       -0.0665963875   -2.8840963459   -1.7524491403
C       -0.3982636416   -0.9841607676   -0.6657020472
C       -0.1786977684    1.3542736803   -0.5747581658
N        0.6820183493   -1.5229064575   -0.0983331486
N        0.8694235016   -2.6765820433   -0.7860205235
O       -0.9301585463    0.1856936546   -0.2119508371
H       -1.7847407754   -1.5983640405   -2.3261692079
H       -0.0600859254   -3.7689340230   -2.3754029265
H       -0.7204615447    2.2071956482   -0.1612749530
H       -0.1169032790    1.4506511057   -1.6660816057
H        0.8304995847    1.3151142660   -0.1514940520
H        1.6326984030   -3.2826768586   -0.5205235822
13   
torsion grid (90,)
C       -0.8435347489   -1.7179508670   -1.7101224666
C       -0.0381353398   -2.8432253127   -1.7718604203
C       -0.3556768703   -1.0006440332   -0.5856477951
C       -0.2228003544    1.3420258722   -0.6162358956
N        0.6682621209   -1.6184036698    0.0036879175
N        0.8448672514   -2.7378912490   -0.7407086629
O       -0.8500855299    0.1665361461   -0.0833969564
H       -1.6666338144   -1.4534806067   -2.3587522360
H       -0.0336613813   -3.6900654028   -2.4456538630
H       -0.7159672966    2.1944064233   -0.1447893883
H       -0.3544203659    1.3965864894   -1.7043450987
H        0.8462720710    1.3531065440   -0.3754774024
H        1.5620411649   -3.3950325261   -0.4680725735
13   
torsion grid (105,)
C       -0.7576606229   -1.6437251435   -1.7094045362
C       -0.0142289710   -2.8097703098   -1.7822999033
C       -0.2934275526   -1.0071494084   -0.5261372702
C       -0.2716849344    1.3368490866   -0.6542227218
N        0.6621229014   -1.7076010413    0.0834584807
N        0.8126409032   -2.8042225488   -0.7008419612
O       -0.7422897420    0.1601327649    0.0163174127
H       -1.5284452203   -1.3071698111   -2.3884047961
H       -0.0208294466   -3.6241759188   -2.4949834477
H       -0.7149336583    2.1865089100   -0.1312622254
H       -0.5882376369    1.3481091153   -1.7047204872
H        0.8216422393    1.3999752149   -0.6019807992
H        1.4740841766   -3.5145127933   -0.4209533944
13   
torsion grid (120,)
C       -0.6607604094   -1.5737135462   -1.7138894612
C        0.0072919092   -2.7845960609   -1.7862312971
C       -0.2264619501   -1.0093766937   -0.4820971763
C       -0.3237597105    1.3310374299   -0.6824716647
N        0.6444732490   -1.7915951737    0.1528754829
N        0.7633454728   -2.8734165922   -0.6587680664
O       -0.6211351351    0.1621392798    0.0898934077
H       -1.3641478107   -1.1674425546   -2.4269774999
H       -0.0100422472   -3.5710882243   -2.5294333777
H       -0.6765245709    2.1819752219   -0.0968145765
H       -0.8424105401    1.3166105726   -1.6490166570
H        0.7561341643    1.4201675756   -0.8502492904
H        1.3642202921   -3.6324120457   -0.3707031837
13   
torsion grid (135,)
C       -0.5525974648   -1.5096522679   -1.7280894714
C        0.0357541864   -2.7623829771   -1.7937003989
C       -0.1646734657   -1.0102786895   -0.4527981260
C       -0.3900766014    1.3188295883   -0.7044259266
N        0.6095480787   -1.8665108034    0.2111597134
N        0.7046030669   -2.9345274091   -0.6234049896
O       -0.5020025785    0.1680918837    0.1373660829
H       -1.1742803740   -1.0398711494   -2.4768406582
H        0.0176337660   -3.5230284225   -2.5632691744
H       -0.5928659112    2.1817815902   -0.0677613749
H       -1.1236976263    1.2949797848   -1.5198867968
H        0.6192258986    1.3988431272   -1.1250286686
H        1.2433081621   -3.7351653847   -0.3255764601
13   
torsion grid (150,)
C       -0.4400385285   -1.4429177977   -1.7347205371
C        0.0576710313   -2.7358331596   -1.7891011237
C       -0.0853447957   -0.9903595117   -0.4321578679
C       -0.4392232075    1.3180462274   -0.7239422293
N        0.5889759163   -1.9092407003    0.2569624940
N        0.6486426510   -2.9710942324   -0.5897790235
O       -0.3502454156    0.2021436560    0.1622597306
H       -0.9791005727   -0.9196070895   -2.5111245493
H        0.0278706553   -3.4816063998   -2.5726682174
H       -0.5275192406    2.2018385757   -0.0901479517
H       -1.3252570433    1.2500386596   -1.3678638613
H        0.4591521854    1.3984037037   -1.3474658312
H        1.1165580452   -3.8105330857   -0.2795509299
13   
torsion grid (165,)
C       -0.3228885510   -1.4022857532   -1.7466954235
C        0.0808675678   -2.7288997483   -1.7866676621
C        0.0128641364   -0.9792935485   -0.4291580003
C       -0.4723591744    1.3023610580   -0.7297028025
N        0.5855849365   -1.9479853773    0.2839745959
N        0.6048823886   -3.0083306573   -0.5670113004
O       -0.1729234241    0.2291801091    0.1598250305
H       -0.7888126621   -0.8407854310   -2.5431723736
H        0.0295290823   -3.4681730734   -2.5751863846
H       -0.5030780581    2.2040594811   -0.1165060170
H       -1.4482836307    1.1613366762   -1.2117477442
H        0.3024739282    1.4070031348   -1.4990892988
H        0.9998737477   -3.8794531634   -0.2430480109
13   
torsion grid (180,)
C       -0.2322074428   -1.3811538184   -1.7660937136
C        0.0755366616   -2.7340604786   -1.7826994574
C        0.0874341195   -0.9715269169   -0.4402998214
C       -0.5205897010    1.2827517221   -0.7167801052
N        0.5519988741   -1.9752218504    0.3027504850
N        0.5338097072   -3.0394981012   -0.5433690517
O       -0.0173903936    0.2543129650    0.1315189951
H       -0.6235630109   -0.7945977990   -2.5841890359
H        0.0010447357   -3.4741763103   -2.5685384713
H       -0.5425111211    2.1901117569   -0.1118234763
H       -1.5358739906    1.0515218825   -1.0631566839
H        0.1337484956    1.4389087083   -1.5837954975
H        0.8489577617   -3.9348031272   -0.1985001679
