11   
torsion grid (-165,)
C        0.9570429406   -1.0518761173   -0.0524040726
C       -2.7603201406   -0.0558261774   -0.7214618031
N       -0.1211499427   -0.3800994154   -0.1685844119
O       -1.8946742515   -1.4679613784    1.3916012376
O       -1.5622684548   -2.4546886437   -0.9397111234
F       -2.3845754368    0.2607914957   -1.9801560307
F       -2.7488670483    1.0512621730    0.0477264955
S       -1.5707855271   -1.3116452320   -0.0250763722
H        1.8973418941   -0.5001059418   -0.1012491238
H        1.0091110651   -2.1380899735    0.0785228413
H       -3.7547127780   -0.5119169511   -0.7224158329
11   
torsion grid (-150,)
C        0.9412132815   -1.0474543698   -0.1033957704
C       -2.7353102918   -0.0679594858   -0.7320966988
N       -0.1287128141   -0.3603428585   -0.0002473693
O       -1.9827411638   -1.4250710007    1.4616598241
O       -1.5204356265   -2.4650874104   -0.8241539725
F       -2.2706153026    0.2370401806   -1.9650525822
F       -2.7945282229    1.0490324029    0.0184464192
S       -1.5816532399   -1.3003952068    0.0624938586
H        1.8881190229   -0.5050918027   -0.0911796060
H        0.9714301078   -2.1363670753   -0.2188784757
H       -3.7206234305   -0.5384595355   -0.8008038233
11   
torsion grid (-135,)
C        0.9110454224   -1.0288625637   -0.1544487011
C       -2.6946058278   -0.0825225703   -0.7403950907
N       -0.1345484039   -0.3723338340    0.1677876606
O       -2.0772245345   -1.4062312401    1.5206327237
O       -1.4906326464   -2.4835179144   -0.7191483897
F       -2.1471052725    0.2022142230   -1.9449070055
F       -2.8015717827    1.0467225618   -0.0141369873
S       -1.5957302028   -1.3047414576    0.1465596974
H        1.8657724959   -0.5023596960   -0.1089861756
H        0.9047831186   -2.0752318410   -0.4792215534
H       -3.6740400461   -0.5532918297   -0.8669443748
11   
torsion grid (-120,)
C        0.8672875447   -0.9971109206   -0.2054646469
C       -2.6395901911   -0.0994616139   -0.7454107127
N       -0.1373472314   -0.4147431913    0.3246072578
O       -2.1712923136   -1.4019175662    1.5738801926
O       -1.4826182780   -2.5099403216   -0.6222390963
F       -2.0109328874    0.1558648900   -1.9172958900
F       -2.7766790785    1.0449886256   -0.0487990703
S       -1.6136160348   -1.3221227559    0.2289440206
H        1.8286550420   -0.4837744268   -0.1490568470
H        0.8170208357   -1.9713006146   -0.7044459910
H       -3.6147450876   -0.5606382667   -0.9279274132
11   
torsion grid (-105,)
C        0.8137650230   -0.9552806768   -0.2513664408
C       -2.5752157733   -0.1191932773   -0.7485906447
N       -0.1338519767   -0.4872293706    0.4655679726
O       -2.2577350103   -1.3991511020    1.6177546225
O       -1.4949798809   -2.5459263870   -0.5349886288
F       -1.8760001056    0.0964209679   -1.8890305821
F       -2.7226447605    1.0442473934   -0.0858221513
S       -1.6325360015   -1.3488358710    0.3031409970
H        1.7799902543   -0.4512741669   -0.1913410984
H        0.7143374507   -1.8316331190   -0.9012866029
H       -3.5489868992   -0.5623005526   -0.9772456393
11   
torsion grid (-90,)
C        0.7556188901   -0.9067730493   -0.2905453176
C       -2.5076044316   -0.1427954862   -0.7516835096
N       -0.1211089262   -0.5875909605    0.5826667762
O       -2.3304989190   -1.3857460189    1.6535200040
O       -1.5263784355   -2.5921128073   -0.4533708240
F       -1.7521729416    0.0261708462   -1.8654242287
F       -2.6468372023    1.0411606568   -0.1238986858
S       -1.6507003221   -1.3811374515    0.3668732055
H        1.7281053893   -0.4161342513   -0.2191908527
H        0.6008051564   -1.6533596432   -1.0767660127
H       -3.4830859374   -0.5618379968   -1.0153887507
11   
torsion grid (-75,)
C        0.7087241332   -0.8487488606   -0.3083212189
C       -2.4501378725   -0.1723854176   -0.7595832998
N       -0.0984851048   -0.7202794886    0.6745774294
O       -2.3893092287   -1.3622292944    1.6668510756
O       -1.5692521709   -2.6506409950   -0.3863543560
F       -1.6963944722   -0.0829602728   -1.8850408808
F       -2.5130667851    1.0405299859   -0.1742944242
S       -1.6666346040   -1.4201933867    0.4062187906
H        1.6951252942   -0.3936532022   -0.1993273473
H        0.4964126043   -1.4088422543   -1.2242162033
H       -3.4508394735   -0.5407529757   -1.0037177617
11   
torsion grid (-60,)
C        0.6860098272   -0.7651711052   -0.2798215695
C       -2.4147602898   -0.2134673404   -0.7798915351
N       -0.0807838461   -0.8878478152    0.7346680753
O       -2.4390697993   -1.3513475732    1.6352009375
O       -1.6064819170   -2.7355177235   -0.3506257523
F       -1.8225272677   -0.3137958168   -1.9970355004
F       -2.2112970137    1.0309142649   -0.2955049063
S       -1.6803292851   -1.4815972742    0.4008844825
H        1.6944813491   -0.3914443178   -0.0912313152
H        0.4254433460   -1.0235236797   -1.3101745264
H       -3.4845427837   -0.4273577808   -0.8596765865
11   
torsion grid (-45,)
C        0.6674551967   -0.6931423472   -0.2528930695
C       -2.3871493477   -0.2543394066   -0.8050013959
N       -0.0614242841   -1.0493387932    0.7324359221
O       -2.4423084181   -1.3167756358    1.6215403327
O       -1.6675262856   -2.8119455912   -0.3058730681
F       -1.9261670825   -0.4814698171   -2.0606519455
F       -2.0043301433    0.9841126283   -0.4146386859
S       -1.6887553194   -1.5303272786    0.3946397635
H        1.7008414483   -0.4227171498   -0.0272760300
H        0.3520389791   -0.6392410264   -1.2988330666
H       -3.4765324235   -0.3449717442   -0.7766569533
11   
torsion grid (-30,)
C        0.6627254174   -0.6515389839   -0.2427622939
C       -2.3723599264   -0.2883934272   -0.8267855822
N       -0.0363768517   -1.1941200921    0.6758073357
O       -2.3930640327   -1.2440155337    1.6370959159
O       -1.7719361460   -2.8562181139   -0.2505693979
F       -1.9206936531   -0.5484948019   -2.0797383686
F       -1.9657136372    0.9521062085   -0.4618173997
S       -1.6952927281   -1.5509376474    0.3963805810
H        1.7183694405   -0.4835785912   -0.0207412547
H        0.3035792056   -0.3379316453   -1.2264254566
H       -3.4630947684   -0.3570335339   -0.7936522754
11   
torsion grid (-15,)
C        0.6652515179   -0.6261514311   -0.2335055955
C       -2.3680625482   -0.3163823100   -0.8478772552
N       -0.0146372757   -1.3197973431    0.5921677705
O       -2.3150706640   -1.1666950698    1.6600556364
O       -1.8846883849   -2.8739526903   -0.1964508635
F       -1.8792724932   -0.5820109902   -2.0857460022
F       -1.9939209729    0.9363476549   -0.4868106461
S       -1.6996080343   -1.5564435998    0.3989095709
H        1.7374168549   -0.5506033286   -0.0420469217
H        0.2767275794   -0.1004432465   -1.1088114353
H       -3.4579932589   -0.4040238075   -0.8430924546
11   
torsion grid (0,)
C        0.6652785268   -0.6094524559   -0.2198899972
C       -2.3646280712   -0.3389891736   -0.8696887459
N        0.0011619866   -1.4296544802    0.4949278336
O       -2.2257491794   -1.0976407930    1.6805319447
O       -1.9934970125   -2.8749241183   -0.1440270144
F       -1.8314093494   -0.6072148937   -2.0884861687
F       -2.0343939043    0.9279442447   -0.5142120315
S       -1.7015438058   -1.5560007668    0.4010622454
H        1.7484974963   -0.6077262299   -0.0837629222
H        0.2540478324    0.0883813294   -0.9526252108
H       -3.4516221997   -0.4548788246   -0.8970381291
11   
torsion grid (15,)
C        0.6615047005   -0.5978935781   -0.2027597758
C       -2.3618546945   -0.3597587316   -0.8935104057
N        0.0114799835   -1.5253407714    0.3824257837
O       -2.1264141785   -1.0307669220    1.6936515077
O       -2.0938499715   -2.8682739560   -0.0865381542
F       -1.7886534175   -0.6286382175   -2.0930162622
F       -2.0744356501    0.9201168490   -0.5454806911
S       -1.7006462278   -1.5535462646    0.4013794087
H        1.7502704685   -0.6503747860   -0.1416203544
H        0.2330553715    0.2387656608   -0.7594547274
H       -3.4443140642   -0.5044454445   -0.9482845257
11   
torsion grid (30,)
C        0.6548588395   -0.5898536957   -0.1774577307
C       -2.3600309528   -0.3801612627   -0.9224062660
N        0.0174664861   -1.6070032410    0.2537949908
O       -2.0205344496   -0.9623385069    1.6914056936
O       -2.1832128752   -2.8579264531   -0.0199044992
F       -1.7566533081   -0.6497941337   -2.1058025145
F       -2.1097669195    0.9100408802   -0.5848114080
S       -1.6961148631   -1.5502592158    0.3963699991
H        1.7430357407   -0.6715523656   -0.2109900850
H        0.2144187245    0.3510083291   -0.5176328955
H       -3.4373241024   -0.5523164967   -0.9957734810
11   
torsion grid (45,)
C        0.6532568808   -0.5826378332   -0.1401705927
C       -2.3684868081   -0.4010005686   -0.9550897856
N        0.0178712544   -1.6626594175    0.1024222583
O       -1.9143504579   -0.8931058215    1.6640758648
O       -2.2443338044   -2.8501490968    0.0479484266
F       -1.7878646605   -0.6982414030   -2.1413557580
F       -2.1038935521    0.8938811149   -0.6484912441
S       -1.6863616379   -1.5468612973    0.3778647387
H        1.7325457662   -0.6683653916   -0.2805517042
H        0.2157791097    0.4170553561   -0.2150923799
H       -3.4480197703   -0.5680718034   -1.0047680203
11   
torsion grid (60,)
C        0.6595857215   -0.5562280367   -0.0688953540
C       -2.3888219622   -0.4271631854   -0.9969768369
N        0.0194658834   -1.6618220156   -0.0633865644
O       -1.8466996009   -0.8411071717    1.5981977301
O       -2.2429341783   -2.8648195282    0.0813796938
F       -1.9727298608   -0.8372429827   -2.2150515745
F       -1.9756197090    0.8502990843   -0.7984892683
S       -1.6700501311   -1.5510855300    0.3303904132
H        1.7220333013   -0.6046251011   -0.3161392853
H        0.2399953708    0.4239511220    0.1750349630
H       -3.4780825148   -0.4903128168   -0.9192721130
11   
torsion grid (75,)
C        0.6674735270   -0.5277975629    0.0203494823
C       -2.4145121143   -0.4510915388   -1.0452152512
N        0.0148998027   -1.5987148239   -0.2276240919
O       -1.8078782841   -0.7956179146    1.5181125451
O       -2.1921037160   -2.8900210659    0.0989455541
F       -2.2506282350   -0.9981489129   -2.2665077914
F       -1.8058167617    0.7619706992   -1.0174884491
S       -1.6494279138   -1.5518720361    0.2712701198
H        1.7084529783   -0.4971762854   -0.3073707877
H        0.2718863899    0.3346805162    0.5655865996
H       -3.4762033530   -0.3463672370   -0.8032661260
11   
torsion grid (90,)
C        0.7086434881   -0.5415246255    0.0835990079
C       -2.4663455802   -0.4650942351   -1.0819897448
N       -0.0026236068   -1.5058580866   -0.3604626070
O       -1.7670126011   -0.7218977170    1.4667237927
O       -2.1387223575   -2.8703322037    0.1299406226
F       -2.3759269820   -1.0647130170   -2.2851237015
F       -1.8445417095    0.7392242727   -1.1331780808
S       -1.6339046281   -1.5095671260    0.2352299157
H        1.7356267514   -0.4743481448   -0.2801878634
H        0.3629405088    0.1934042661    0.8183580086
H       -3.5119909630   -0.3394495450   -0.7861175463
11   
torsion grid (105,)
C        0.7648393969   -0.5747786809    0.1384117155
C       -2.5295424499   -0.4757871250   -1.1140743253
N       -0.0176795976   -1.3879193104   -0.4595107809
O       -1.7408178301   -0.6354742668    1.4263942146
O       -2.0733655408   -2.8262502034    0.1531674909
F       -2.4452486964   -1.1118095561   -2.2985409176
F       -1.9606817995    0.7495904194   -1.2182040307
S       -1.6201722574   -1.4430044544    0.2066612025
H        1.7858749984   -0.4966980826   -0.2392210273
H        0.4749484932    0.0274862538    1.0064646354
H       -3.5720123968   -0.3855111556   -0.7947563734
11   
torsion grid (120,)
C        0.5020234481   -1.2723232940    1.4861056643
C       -2.2133108404   -0.2146129947   -0.6493947654
N       -0.0045406707   -1.3961217061    0.3211248314
O       -2.2924657220   -1.6743392526    1.6533568930
O       -1.9122874955   -2.8886897335   -0.5663960826
F       -1.8696126174    0.8833923610    0.0622659675
F       -3.5525118661   -0.2532448753   -0.8002543845
S       -1.7090347702   -1.7414491162    0.3118181552
H        1.5728201770   -1.0714543308    1.5488994531
H       -0.0743297991   -1.3605367681    2.4137331935
H       -1.7135491926   -0.2184022343   -1.6209588123
11   
torsion grid (135,)
C        0.5388467043   -1.3345186504    1.5062913445
C       -2.2521826016   -0.2056781492   -0.6893700816
N       -0.0218602767   -1.2425404655    0.3639424505
O       -2.3095824107   -1.5797529963    1.6789022112
O       -1.8473426268   -2.8495463961   -0.4928397731
F       -1.9736779427    0.9383915129   -0.0246621328
F       -3.5846509310   -0.3098463489   -0.8701725467
S       -1.7071004718   -1.6634684761    0.3477570022
H        1.6078630774   -1.1223358636    1.5598534842
H        0.0103618085   -1.6026162372    2.4277457981
H       -1.7274736780   -0.2358698744   -1.6471476434
11   
torsion grid (150,)
C        0.5700798917   -1.3913328274    1.5106764681
C       -2.2793978198   -0.2002321117   -0.7224404650
N       -0.0498122131   -1.0970976086    0.4352998191
O       -2.3488004621   -1.4782116932    1.7054535531
O       -1.7876894054   -2.8112492950   -0.4037118211
F       -2.0767693157    0.9821485805   -0.1007625927
F       -3.5987583701   -0.3713782151   -0.9471982253
S       -1.7128667641   -1.5880611329    0.3931037624
H        1.6333863893   -1.1513228043    1.5608598618
H        0.1014891967   -1.8518597972    2.3871750018
H       -1.7176604764   -0.2491850399   -1.6581552490
11   
torsion grid (165,)
C        0.5956876359   -1.4416223744    1.4971502449
C       -2.2934581803   -0.1984768626   -0.7465158913
N       -0.0859755612   -0.9662022890    0.5293477099
O       -2.4030357732   -1.3645613894    1.7357359422
O       -1.7471142479   -2.7783140991   -0.2927212999
F       -2.1882208566    1.0124954660   -0.1593438926
F       -3.5873822872   -0.4456257662   -1.0411111189
S       -1.7275604881   -1.5176711831    0.4488193251
H        1.6475450728   -1.1574916315    1.5580958845
H        0.1979883569   -2.1003106966    2.2766820072
H       -1.6752730201   -0.2500011188   -1.6458387981
11   
torsion grid (180,)
C        0.6147137928   -1.4828262524    1.4685228574
C       -2.2944200899   -0.2017788721   -0.7621281821
N       -0.1276934218   -0.8537324903    0.6435069108
O       -2.4700172693   -1.2417985213    1.7647788444
O       -1.7242066719   -2.7532707855   -0.1600979187
F       -2.2893258996    1.0291603847   -0.2109527628
F       -3.5519421130   -0.5246824717   -1.1330056937
S       -1.7485812578   -1.4539322562    0.5127815011
H        1.6486248100   -1.1484163776    1.5695336189
H        0.2922652230   -2.3287754625    2.0850317309
H       -1.6162164516   -0.2477288399   -1.6176707929
