31
0 1 C12FH14NOS2
C                     4.995370923241    -3.465521305852    -1.656591512297
C                     3.725194553414    -3.330048230389    -1.087138894004
C                     5.895284311265    -2.396836826766    -1.646817894972
C                     4.228593642406    -1.044663236331    -0.486517610999
C                     3.333290440949    -2.122406287328    -0.498692581589
C                     5.483863460632    -1.204376686833    -1.058305953999
C                     1.006709821265    -1.177965674503    -0.803825204899
C                    -1.090102233466    -0.012030679840    -1.126321063844
C                    -0.638560748959    -1.096686245737     1.090920304391
C                    -0.585935228964     1.415301373024    -1.383031247116
C                    -0.326710840096     0.029053659819     2.084733193306
C                     1.961304286409    -1.963102525823     0.108473946165
N                    -0.219178236687    -0.836849641171    -0.285837504559
O                     1.314062930362    -0.876359170617    -1.955579615594
F                     6.346337497501    -0.153030228087    -1.040564552455
S                     0.139041539650     2.254051850486     0.085139369051
S                    -1.092655121916     1.646507061570     1.660346400323
H                     5.288174680645    -4.408016049406    -2.111152873559
H                     3.032729654733    -4.167913510796    -1.107820716345
H                     6.887612006130    -2.473837751948    -2.080255803760
H                     3.955374230850    -0.085958540665    -0.054309758762
H                    -2.063147710918     0.032650001060    -0.635584830955
H                    -1.216537094465    -0.499276269344    -2.098110761441
H                    -0.172924412484    -2.019478494047     1.445334513401
H                    -1.717456443173    -1.279317662719     1.082764725764
H                     0.232414683844     1.403701051843    -2.106585576804
H                    -1.408389625431     2.015789694963    -1.781309277917
H                    -0.729062477065    -0.236166507933     3.069545740971
H                     0.749932178483     0.185884189919     2.185854756598
H                     1.523492304634    -2.947566160494     0.307971812507
H                     2.039079953486    -1.455360061413     1.075116913837
