
  -OEChem-12102412483D

 31 32  0     0  0  0  0  0  0999 V2000
    0.5326    1.1541   -5.8357 C   0  0  0  0  0  0  0  0  0  0  0  0
    0.6228    0.2817   -4.7462 C   0  0  0  0  0  0  0  0  0  0  0  0
    0.9971    2.4678   -5.7337 C   0  0  0  0  0  0  0  0  0  0  0  0
    1.6563    2.0233   -3.4242 C   0  0  0  0  0  0  0  0  0  0  0  0
    1.1837    0.7071   -3.5340 C   0  0  0  0  0  0  0  0  0  0  0  0
    1.5504    2.8696   -4.5209 C   0  0  0  0  0  0  0  0  0  0  0  0
    0.9708    0.4041   -1.0128 C   0  0  0  0  0  0  0  0  0  0  0  0
   -0.6155    1.1456    0.6522 C   0  0  0  0  0  0  0  0  0  0  0  0
   -1.4641    0.3457   -1.5775 C   0  0  0  0  0  0  0  0  0  0  0  0
   -0.3930    0.0820    1.7353 C   0  0  0  0  0  0  0  0  0  0  0  0
   -2.3517   -0.8471   -1.1347 C   0  0  0  0  0  0  0  0  0  0  0  0
    1.3022   -0.2426   -2.3563 C   0  0  0  0  0  0  0  0  0  0  0  0
   -0.3433    0.6474   -0.6998 N   0  0  0  0  0  0  0  0  0  0  0  0
    1.8765    0.7070   -0.2313 O   0  0  0  0  0  0  0  0  0  0  0  0
    2.0071    4.1436   -4.4051 F   0  0  0  0  0  0  0  0  0  0  0  0
   -1.6315   -1.2707    1.7597 S   0  0  0  0  0  0  0  0  0  0  0  0
   -1.4735   -2.1190   -0.1495 S   0  0  0  0  0  0  0  0  0  0  0  0
    0.0973    0.8105   -6.7701 H   0  0  0  0  0  0  0  0  0  0  0  0
    0.2586   -0.7387   -4.8412 H   0  0  0  0  0  0  0  0  0  0  0  0
    0.9378    3.1672   -6.5617 H   0  0  0  0  0  0  0  0  0  0  0  0
    2.1018    2.3865   -2.5024 H   0  0  0  0  0  0  0  0  0  0  0  0
   -1.6459    1.5099    0.6795 H   0  0  0  0  0  0  0  0  0  0  0  0
    0.0561    1.9853    0.8531 H   0  0  0  0  0  0  0  0  0  0  0  0
   -1.0801    0.1687   -2.5783 H   0  0  0  0  0  0  0  0  0  0  0  0
   -2.0980    1.2377   -1.6529 H   0  0  0  0  0  0  0  0  0  0  0  0
    0.6117   -0.3324    1.6537 H   0  0  0  0  0  0  0  0  0  0  0  0
   -0.4940    0.5427    2.7251 H   0  0  0  0  0  0  0  0  0  0  0  0
   -3.1996   -0.5114   -0.5340 H   0  0  0  0  0  0  0  0  0  0  0  0
   -2.7521   -1.3552   -2.0187 H   0  0  0  0  0  0  0  0  0  0  0  0
    0.6874   -1.1323   -2.5201 H   0  0  0  0  0  0  0  0  0  0  0  0
    2.3378   -0.5772   -2.2564 H   0  0  0  0  0  0  0  0  0  0  0  0
  1  2  1  0  0  0  0
  1  3  2  0  0  0  0
  1 18  1  0  0  0  0
  2  5  2  0  0  0  0
  2 19  1  0  0  0  0
  3  6  1  0  0  0  0
  3 20  1  0  0  0  0
  4  5  1  0  0  0  0
  4  6  2  0  0  0  0
  4 21  1  0  0  0  0
  5 12  1  0  0  0  0
  6 15  1  0  0  0  0
  7 12  1  0  0  0  0
  7 13  1  0  0  0  0
  7 14  2  0  0  0  0
  8 10  1  0  0  0  0
  8 13  1  0  0  0  0
  8 22  1  0  0  0  0
  8 23  1  0  0  0  0
  9 11  1  0  0  0  0
  9 13  1  0  0  0  0
  9 24  1  0  0  0  0
  9 25  1  0  0  0  0
 10 16  1  0  0  0  0
 10 26  1  0  0  0  0
 10 27  1  0  0  0  0
 11 17  1  0  0  0  0
 11 28  1  0  0  0  0
 11 29  1  0  0  0  0
 12 30  1  0  0  0  0
 12 31  1  0  0  0  0
 16 17  1  0  0  0  0
M  END
$$$$
