20   
torsion grid (-165,)
C        1.7747427081   -0.7193500224    1.1251761154
C        0.2964780095   -0.8565427704    1.5665052737
C        1.7511652439    0.0617722846   -0.2119273078
C       -0.4277770887    0.3336790828    0.9324172784
C        0.4782168369    0.9081951335   -0.1671722245
C       -0.8299590452    0.2233072637   -0.5104353205
C       -1.9895306050    1.0536331821   -1.0151674600
O       -0.7916919603   -1.0871234690   -1.0488503885
H        2.3199268576   -0.1314591553    1.8731393898
H        2.2800121901   -1.6870598435    1.0386300133
H       -0.1310773169   -1.7998523096    1.2148751399
H        0.1962611858   -0.8349700358    2.6559005427
H        2.6367970179    0.6933928006   -0.3300935262
H        1.7256333643   -0.6303953385   -1.0604922184
H       -1.0180314782    0.9907524670    1.5662693876
H        0.5492323128    1.9818297113   -0.3253132568
H       -1.9229101734    1.2059095232   -2.1009339863
H       -2.0001392110    2.0420844268   -0.5461136545
H       -2.9405687986    0.5562228972   -0.7957572160
H       -0.8319289655   -1.0080374585   -2.0154429419
20   
torsion grid (-150,)
C        1.7718497968   -0.7318866168    1.1161446902
C        0.2963640777   -0.8579378561    1.5698235111
C        1.7436679406    0.0489474474   -0.2211905601
C       -0.4253686074    0.3341997244    0.9372821791
C        0.4726110934    0.8982717960   -0.1711140021
C       -0.8437484349    0.2209934840   -0.5020688594
C       -1.9992691008    1.0604614467   -1.0022771476
O       -0.8188031852   -1.0883576002   -1.0410802943
H        2.3278157309   -0.1473022976    1.8586424955
H        2.2696289500   -1.7031140376    1.0261411295
H       -0.1398431056   -1.7994037526    1.2244775790
H        0.2055710375   -0.8313646986    2.6598989264
H        2.6296018112    0.6794071021   -0.3432124960
H        1.7194317037   -0.6439969338   -1.0697986198
H       -1.0053678177    0.9980688765    1.5733630187
H        0.5461954706    1.9706693851   -0.3355167618
H       -1.9342814773    1.2124911278   -2.0875892801
H       -2.0042030486    2.0475728517   -0.5296642392
H       -2.9515800292    0.5661002492   -0.7827291483
H       -0.6284721868   -1.0118943666   -1.9900219619
20   
torsion grid (-135,)
C        1.7693732210   -0.7427779358    1.1035257347
C        0.2960353634   -0.8596665405    1.5662626618
C        1.7387181122    0.0413276236   -0.2321054804
C       -0.4222114674    0.3363594500    0.9385269521
C        0.4681076101    0.8915067628   -0.1778918731
C       -0.8543608616    0.2213995957   -0.4990115328
C       -2.0062660565    1.0692718874   -0.9939492583
O       -0.8422001364   -1.0843162156   -1.0471351770
H        2.3341144161   -0.1627148326    1.8427777997
H        2.2606896017   -1.7168321312    1.0089067062
H       -0.1483812370   -1.7974208356    1.2212811528
H        0.2124505899   -0.8338528157    2.6568542365
H        2.6239669894    0.6726636275   -0.3539065430
H        1.7215818301   -0.6495547974   -1.0836275973
H       -0.9915376284    1.0060612092    1.5780278376
H        0.5435610730    1.9626416874   -0.3488543188
H       -1.9404443809    1.2249780377   -2.0779965514
H       -2.0086961494    2.0528393133   -0.5134959862
H       -2.9596007099    0.5757425459   -0.7776010718
H       -0.4327830786   -1.0339472078   -1.9255439043
20   
torsion grid (-120,)
C        1.7647996694   -0.7506568023    1.0904419975
C        0.2929725809   -0.8605972044    1.5596052262
C        1.7335302123    0.0406056301   -0.2412770952
C       -0.4217124056    0.3407504408    0.9397260041
C        0.4620646022    0.8894397279   -0.1838759519
C       -0.8643261099    0.2253033095   -0.4974375798
C       -2.0139106035    1.0799112387   -0.9855720232
O       -0.8676211111   -1.0744556703   -1.0608772054
H        2.3364678101   -0.1765318083    1.8287868464
H        2.2507550616   -1.7267909818    0.9896892124
H       -0.1592382759   -1.7934555679    1.2107299255
H        0.2148745391   -0.8404480201    2.6506060665
H        2.6171793762    0.6747375683   -0.3588158840
H        1.7285834214   -0.6447108415   -1.0990201135
H       -0.9806599781    1.0146898141    1.5838583544
H        0.5387916570    1.9594389535   -0.3607029564
H       -1.9462570433    1.2426641985   -2.0677974332
H       -2.0163398973    2.0580781677   -0.4940374258
H       -2.9675792100    0.5848466376   -0.7743960413
H       -0.2651806436   -1.0760166955   -1.8208077854
20   
torsion grid (-105,)
C        1.7586875350   -0.7552509178    1.0731444486
C        0.2873527878   -0.8612130873    1.5452893528
C        1.7289510514    0.0465363519   -0.2527285641
C       -0.4239782419    0.3463038964    0.9350634766
C        0.4560610232    0.8928767656   -0.1932611214
C       -0.8718052042    0.2331187384   -0.5032512477
C       -2.0202338848    1.0921116257   -0.9844085107
O       -0.8930346403   -1.0578359287   -1.0869521902
H        2.3345724507   -0.1881804857    1.8134022520
H        2.2409248540   -1.7325379415    0.9653301429
H       -0.1713723834   -1.7890126754    1.1899113108
H        0.2122280498   -0.8505155478    2.6364884970
H        2.6107885453    0.6842728230   -0.3626178688
H        1.7382996442   -0.6295887931   -1.1196070332
H       -0.9745503838    1.0218372731    1.5846905544
H        0.5340924840    1.9622256536   -0.3730781465
H       -1.9494118550    1.2644018246   -2.0643732333
H       -2.0249883410    2.0636304379   -0.4800430645
H       -2.9735983520    0.5934294422   -0.7803548624
H       -0.1365900998   -1.1366510215   -1.6878696539
20   
torsion grid (-90,)
C        1.7549346473   -0.7541069160    1.0541475053
C        0.2834887305   -0.8614271501    1.5263751093
C        1.7257736597    0.0592423307   -0.2649729574
C       -0.4275461399    0.3513400124    0.9270782560
C        0.4511345104    0.9025270158   -0.2025320416
C       -0.8762208917    0.2455237370   -0.5131667321
C       -2.0249997183    1.1068393842   -0.9865721417
O       -0.9139532271   -1.0328129852   -1.1229789927
H        2.3311926647   -0.1927929795    1.7982087805
H        2.2372491891   -1.7307022469    0.9394701522
H       -0.1784740263   -1.7858340190    1.1643036794
H        0.2096718963   -0.8621687179    2.6175321733
H        2.6060088739    0.7003011615   -0.3666211050
H        1.7460329923   -0.6057002097   -1.1418720956
H       -0.9732065912    1.0242564860    1.5835461610
H        0.5302602620    1.9722056659   -0.3796070238
H       -1.9497904178    1.2926111505   -2.0635544745
H       -2.0344512572    2.0701185156   -0.4671360037
H       -2.9773147371    0.6021771542   -0.7923660897
H       -0.0547580513   -1.2080613800   -1.5357790328
20   
torsion grid (-75,)
C        1.7539639987   -0.7512422205    1.0357267408
C        0.2822037824   -0.8655170391    1.5059977649
C        1.7228513633    0.0714088186   -0.2778057006
C       -0.4313602957    0.3511194672    0.9174434578
C        0.4481170573    0.9141523777   -0.2089293548
C       -0.8777200137    0.2586351343   -0.5251753612
C       -2.0270203709    1.1218678582   -0.9903171606
O       -0.9276926572   -1.0032918820   -1.1663550613
H        2.3266766928   -0.1927505977    1.7843963663
H        2.2406160844   -1.7252714600    0.9160593683
H       -0.1794298156   -1.7896892391    1.1403974957
H        0.2083781215   -0.8767501218    2.5969438249
H        2.6032452195    0.7126506071   -0.3756899430
H        1.7429524348   -0.5839791574   -1.1624812778
H       -0.9760072034    1.0172197256    1.5817800585
H        0.5289743349    1.9855145733   -0.3747115790
H       -1.9480150811    1.3204900369   -2.0643892357
H       -2.0389208943    2.0775899581   -0.4577636721
H       -2.9787334030    0.6128594694   -0.8046268294
H       -0.0253932246   -1.2881081170   -1.3766036338
20   
torsion grid (-60,)
C        1.7597046824   -0.7420402416    1.0249161054
C        0.2868351784   -0.8734763406    1.4880861059
C        1.7237853610    0.0856553327   -0.2851854790
C       -0.4345209284    0.3436500409    0.9088317919
C        0.4487221132    0.9274614227   -0.2072970918
C       -0.8735933469    0.2723285207   -0.5369630852
C       -2.0238638606    1.1383819549   -0.9917636665
O       -0.9285113103   -0.9696390954   -1.2142722430
H        2.3208394713   -0.1796207797    1.7792631198
H        2.2589865560   -1.7098311802    0.9048762081
H       -0.1665186166   -1.8018983363    1.1199580312
H        0.2092200266   -0.8951456499    2.5785077777
H        2.6051424573    0.7252471044   -0.3843077685
H        1.7341719825   -0.5642441072   -1.1734105441
H       -0.9853563994    0.9970064527    1.5808260790
H        0.5304241217    2.0017437610   -0.3526650721
H       -1.9489880952    1.3403989165   -2.0653128563
H       -2.0284961244    2.0919900077   -0.4559192143
H       -2.9760814367    0.6317530273   -0.8023159231
H       -0.0460870487   -1.3703637719   -1.2223130748
20   
torsion grid (-45,)
C        1.7596024983   -0.7262568645    1.0156361840
C        0.2859614009   -0.8718069611    1.4736389224
C        1.7218794605    0.1106928656   -0.2886391011
C       -0.4455131032    0.3406472407    0.8959505920
C        0.4438967314    0.9472953179   -0.2052654641
C       -0.8702487459    0.2862885489   -0.5541885707
C       -2.0228069296    1.1495543675   -1.0072726070
O       -0.9149063653   -0.9397381488   -1.2602039835
H        2.3129920749   -0.1661024716    1.7772410278
H        2.2664063666   -1.6896673642    0.8909643879
H       -0.1576977087   -1.8086058003    1.1116063765
H        0.2049885933   -0.8955160793    2.5637430456
H        2.6024240264    0.7522616063   -0.3812254118
H        1.7259147807   -0.5313272420   -1.1811227727
H       -1.0103464915    0.9791334447    1.5706860382
H        0.5211351037    2.0243937098   -0.3311419268
H       -1.9505083155    1.3474474459   -2.0817401944
H       -2.0233901147    2.1056321009   -0.4762279509
H       -2.9746728623    0.6443848260   -0.8126790015
H       -0.1115953245   -1.4493292252   -1.0756972365
20   
torsion grid (-30,)
C        1.7657821663   -0.7182434334    1.0049617589
C        0.2919175815   -0.8764940212    1.4589974198
C        1.7259415518    0.1295348394   -0.2920814465
C       -0.4491273941    0.3315337508    0.8832714266
C        0.4458019652    0.9612795613   -0.2008601644
C       -0.8597158227    0.2945509472   -0.5709976731
C       -2.0141720699    1.1555975924   -1.0235053031
O       -0.8848493590   -0.9183676711   -1.3002767322
H        2.3132184887   -0.1625196403    1.7740632869
H        2.2780229653   -1.6778674426    0.8734496277
H       -0.1417340039   -1.8217354701    1.1028689940
H        0.2073035584   -0.9023799099    2.5488118925
H        2.6058232597    0.7727890148   -0.3785575225
H        1.7208800247   -0.5051406061   -1.1881692859
H       -1.0292544801    0.9541289325    1.5598756939
H        0.5172770050    2.0409190463   -0.3067595523
H       -1.9405957891    1.3540713369   -2.0978616945
H       -2.0152612754    2.1123761258   -0.4937572370
H       -2.9655760890    0.6491401341   -0.8304807768
H       -0.2130279699   -1.5218850248   -0.9489223315
20   
torsion grid (-15,)
C        1.7718926284   -0.7144693310    0.9951911314
C        0.2986709569   -0.8834307248    1.4475206774
C        1.7291610501    0.1450373927   -0.2935380174
C       -0.4517310201    0.3195835535    0.8731958343
C        0.4462085320    0.9705107667   -0.1946770197
C       -0.8499055387    0.2961912167   -0.5846928481
C       -2.0078030465    1.1532268256   -1.0377152088
O       -0.8454874223   -0.9077814862   -1.3294438211
H        2.3160152379   -0.1652509091    1.7713412364
H        2.2872294317   -1.6709792381    0.8543282431
H       -0.1250967412   -1.8367985365    1.0974918709
H        0.2116007737   -0.9096143286    2.5372133758
H        2.6075971464    0.7910196724   -0.3746691443
H        1.7160042017   -0.4830717574   -1.1928171552
H       -1.0477541662    0.9270349799    1.5496714639
H        0.5098536118    2.0520938667   -0.2837790424
H       -1.9335945471    1.3499665675   -2.1124186399
H       -2.0114855166    2.1119298283   -0.5111395601
H       -2.9582004753    0.6445757849   -0.8454650381
H       -0.3455440402   -1.5830609108   -0.8463216649
20   
torsion grid (0,)
C        1.7817939468   -0.7067852757    0.9884130804
C        0.3093271360   -0.8850849540    1.4390507728
C        1.7368581602    0.1629995987   -0.2929751157
C       -0.4483606640    0.3135820013    0.8655542561
C        0.4499128995    0.9807924153   -0.1891166002
C       -0.8370503108    0.2982717933   -0.5953019834
C       -1.9998606416    1.1493777599   -1.0494530949
O       -0.7969576598   -0.9008859103   -1.3475564034
H        2.3235389260   -0.1636455706    1.7706226666
H        2.2992591272   -1.6606406712    0.8389002456
H       -0.1042449048   -1.8445117706    1.0912093785
H        0.2194142181   -0.9120332135    2.5285754257
H        2.6125313587    0.8136154917   -0.3679597911
H        1.7198347939   -0.4599749131   -1.1946050968
H       -1.0580131025    0.9091097263    1.5404303471
H        0.5041854995    2.0636528221   -0.2673740567
H       -1.9224499321    1.3494312889   -2.1233631147
H       -2.0127407831    2.1074884546   -0.5213639147
H       -2.9481787744    0.6342135796   -0.8636380948
H       -0.4978166559   -1.6246456034   -0.7763797943
20   
torsion grid (15,)
C        1.7967581682   -0.6979873553    0.9871285980
C        0.3245496593   -0.8862789259    1.4340615260
C        1.7505181131    0.1776109171   -0.2898953625
C       -0.4387830063    0.3089724920    0.8610633037
C        0.4581249519    0.9863808653   -0.1854115077
C       -0.8209859142    0.2968517727   -0.6020827490
C       -1.9896858497    1.1414036309   -1.0565737722
O       -0.7450556150   -0.9008227848   -1.3549696787
H        2.3345936390   -0.1573811338    1.7739958221
H        2.3179518412   -1.6488240912    0.8325900296
H       -0.0781068791   -1.8484664177    1.0818471647
H        0.2312153832   -0.9152347356    2.5233042809
H        2.6220367256    0.8346346380   -0.3590586018
H        1.7350211003   -0.4431858083   -1.1920441754
H       -1.0583455210    0.8969702688    1.5335136940
H        0.5026445778    2.0698970179   -0.2595687034
H       -1.9088770447    1.3484247727   -2.1289245397
H       -2.0150550497    2.0966820792   -0.5232279520
H       -2.9353126613    0.6177174008   -0.8794715638
H       -0.6646028721   -1.6501007418   -0.7454555513
20   
torsion grid (30,)
C        1.8120009431   -0.6908283655    0.9902487327
C        0.3398320961   -0.8900613470    1.4310414799
C        1.7646112400    0.1852988777   -0.2860870647
C       -0.4271895485    0.3037020405    0.8596720968
C        0.4664462689    0.9856260258   -0.1848428275
C       -0.8073092181    0.2919403996   -0.6050465753
C       -1.9804980369    1.1322312435   -1.0595852774
O       -0.7011741557   -0.9060389057   -1.3541710392
H        2.3439436076   -0.1481038317    1.7799126107
H        2.3389942820   -1.6382892577    0.8354861635
H       -0.0528804247   -1.8507209507    1.0669297015
H        0.2424365489   -0.9246118404    2.5199199757
H        2.6312160663    0.8494581141   -0.3513253965
H        1.7548858624   -0.4362025794   -1.1870221990
H       -1.0504561133    0.8894393733    1.5306595079
H        0.5029359957    2.0692984285   -0.2605210742
H       -1.8955517963    1.3476506975   -2.1299057612
H       -2.0177854824    2.0833187935   -0.5190365351
H       -2.9244583001    0.6016214388   -0.8919417888
H       -0.8446586726   -1.6571068946   -0.7585866181
20   
torsion grid (45,)
C        1.8272320232   -0.6814063971    0.9976314427
C        0.3547229259   -0.8915221989    1.4308674176
C        1.7789139581    0.1908243027   -0.2812008698
C       -0.4150154511    0.3018091630    0.8619520251
C        0.4743846044    0.9825347418   -0.1858822003
C       -0.7955869956    0.2857184821   -0.6039885649
C       -1.9730001990    1.1201604203   -1.0607273741
O       -0.6632240321   -0.9148533946   -1.3443138172
H        2.3522901716   -0.1328718203    1.7881419990
H        2.3613015462   -1.6254346119    0.8466353241
H       -0.0296449677   -1.8473000423    1.0497476032
H        0.2527301940   -0.9342380925    2.5192016970
H        2.6397572881    0.8629824760   -0.3432856124
H        1.7787616397   -0.4332800025   -1.1797157858
H       -1.0370364967    0.8897458198    1.5322311854
H        0.5039111581    2.0659417040   -0.2682987727
H       -1.8837599076    1.3435905325   -2.1290208394
H       -2.0233302753    2.0668075067   -0.5132664926
H       -2.9152819227    0.5827224250   -0.9021502840
H       -1.0216463512   -1.6414397566   -0.8116900169
20   
torsion grid (60,)
C        1.8375148625   -0.6712127083    1.0048407731
C        0.3650456545   -0.8892385506    1.4336096880
C        1.7874879942    0.1951724725   -0.2778829499
C       -0.4072263700    0.3034500833    0.8667288231
C        0.4774564887    0.9796263680   -0.1877624728
C       -0.7896870878    0.2789838978   -0.5999003058
C       -1.9705970148    1.1059051218   -1.0617870727
O       -0.6340006969   -0.9242216463   -1.3304503426
H        2.3579370058   -0.1163064516    1.7941755505
H        2.3773059500   -1.6126363499    0.8581419545
H       -0.0148760498   -1.8394749243    1.0382406024
H        0.2606887229   -0.9377917979    2.5216219631
H        2.6432462117    0.8740309447   -0.3395944003
H        1.7959936553   -0.4323721778   -1.1735595656
H       -1.0260615571    0.8953562042    1.5366266636
H        0.5015949124    2.0624656394   -0.2793319323
H       -1.8774489561    1.3341971925   -2.1287334485
H       -2.0332355466    2.0493818282   -0.5102131507
H       -2.9113802356    0.5627372804   -0.9097473002
H       -1.1837002097   -1.6031412862   -0.9083284597
20   
torsion grid (75,)
C        1.8430723715   -0.6602045787    1.0113322376
C        0.3712558242   -0.8813245889    1.4399204120
C        1.7905180311    0.1984533182   -0.2764888325
C       -0.4027049000    0.3101681203    0.8734073041
C        0.4768076010    0.9784223946   -0.1908994670
C       -0.7890805925    0.2739077231   -0.5932311806
C       -1.9724132039    1.0930965779   -1.0618706880
O       -0.6153796970   -0.9327488344   -1.3135820623
H        2.3622265321   -0.0987745301    1.7970388808
H        2.3858912946   -1.6005888740    0.8693832607
H       -0.0083605872   -1.8267618598    1.0355142973
H        0.2672268978   -0.9320839602    2.5279460064
H        2.6426642596    0.8818245185   -0.3404036763
H        1.8051730754   -0.4333206274   -1.1689601531
H       -1.0161549576    0.9081688863    1.5429733134
H        0.4979012079    2.0603687959   -0.2937277221
H       -1.8764215268    1.3239949363   -2.1280894081
H       -2.0455074043    2.0345926745   -0.5085012465
H       -2.9119938695    0.5455160388   -0.9135303881
H       -1.3206545740   -1.5421265082   -1.0422103575
20   
torsion grid (90,)
C        1.8459804067   -0.6483433573    1.0176310762
C        0.3755455570   -0.8701188435    1.4507247607
C        1.7880090273    0.2006672158   -0.2765987691
C       -0.3999782826    0.3194416758    0.8826329743
C        0.4727228027    0.9790751082   -0.1912988212
C       -0.7930614392    0.2681776652   -0.5824641707
C       -1.9771257492    1.0784470953   -1.0615252305
O       -0.6059725296   -0.9435923845   -1.2919105092
H        2.3662080350   -0.0797509481    1.7975698731
H        2.3907688480   -1.5883667908    0.8807311220
H       -0.0064336095   -1.8131109399    1.0445718479
H        0.2744511563   -0.9186423140    2.5391834602
H        2.6385997447    0.8851668441   -0.3492471588
H        1.8014881816   -0.4375513992   -1.1645741631
H       -1.0092231330    0.9224611796    1.5518877798
H        0.4919614477    2.0601382704   -0.3047166108
H       -1.8773089305    1.3069106723   -2.1281354306
H       -2.0578953687    2.0210198029   -0.5116356214
H       -2.9166229054    0.5291606688   -0.9141696712
H       -1.4194260878   -1.4656042873   -1.2007457432
20   
torsion grid (105,)
C        1.7710873636   -0.6951079434    1.1154153517
C        0.2826633569   -0.8774773965    1.5021291938
C        1.7722228033    0.1306909222   -0.1948871295
C       -0.4424854211    0.3272000963    0.9002506066
C        0.4778438305    0.9475402053   -0.1574271457
C       -0.7950263641    0.2634161393   -0.5742001636
C       -1.9399617978    1.0963403707   -1.1039957816
O       -0.6152746818   -0.9672583853   -1.2563293639
H        2.2773075495   -0.1219913653    1.9013657605
H        2.3003408607   -1.6484505979    1.0136250830
H       -0.1112507613   -1.8106008354    1.0857263459
H        0.1448669765   -0.9159556020    2.5869198167
H        2.6443226587    0.7884655668   -0.2587969884
H        1.7891495524   -0.5244936804   -1.0706413663
H       -1.0519303798    0.9558178704    1.5456158763
H        0.5313920080    2.0260623855   -0.2848473559
H       -1.7990293121    1.3109949890   -2.1691982698
H       -2.0145410758    2.0471225431   -0.5681112178
H       -2.8988818478    0.5746748885   -0.9802268677
H       -1.4922657010   -1.3601808730   -1.3899659404
20   
torsion grid (120,)
C        1.7786064849   -0.6965721079    1.1240015907
C        0.2917696553   -0.8743341739    1.5191319539
C        1.7741853945    0.1196750879   -0.1923552653
C       -0.4344175747    0.3273624585    0.9124621857
C        0.4820780049    0.9396389227   -0.1541002033
C       -0.7942464468    0.2501818353   -0.5574253201
C       -1.9403179181    1.0778525700   -1.0911805754
O       -0.6246407586   -0.9967232793   -1.2180293218
H        2.2897617722   -0.1183423762    1.9029878791
H        2.3059715973   -1.6513920294    1.0262809646
H       -0.1073731306   -1.8078862939    1.1093857055
H        0.1593088152   -0.9052710696    2.6048014820
H        2.6479668746    0.7740671523   -0.2670346583
H        1.7831127252   -0.5423414995   -1.0634335652
H       -1.0407714506    0.9604509544    1.5565691831
H        0.5371630877    2.0172880188   -0.2892930795
H       -1.8065150794    1.2813011676   -2.1600982369
H       -2.0074089682    2.0360641576   -0.5682547783
H       -2.9000331575    0.5614263549   -0.9522761931
H       -1.4899941125   -1.2738630422   -1.5548701114
20   
torsion grid (135,)
C        1.7765337295   -0.6930502431    1.1278875241
C        0.2909744395   -0.8642331916    1.5313028604
C        1.7683674245    0.1134294262   -0.1945581930
C       -0.4358421674    0.3336765480    0.9175014080
C        0.4796949453    0.9377211263   -0.1569518970
C       -0.8002308484    0.2431238019   -0.5467197688
C       -1.9508089516    1.0647770456   -1.0793730707
O       -0.6528507565   -1.0251313112   -1.1765829244
H        2.2932693122   -0.1105387692    1.8999554926
H        2.3006579649   -1.6500865651    1.0345318428
H       -0.1134612192   -1.7996911911    1.1316769410
H        0.1635267968   -0.8849594014    2.6177783095
H        2.6444754321    0.7634710455   -0.2789977199
H        1.7689103815   -0.5559669607   -1.0603745981
H       -1.0407416315    0.9712477518    1.5585761776
H        0.5366865901    2.0144510786   -0.2997095625
H       -1.8271303683    1.2619083998   -2.1514793107
H       -2.0120889215    2.0286845221   -0.5665923258
H       -2.9081993885    0.5490443649   -0.9261411255
H       -1.4450472555   -1.1889480971   -1.7081751096
20   
torsion grid (150,)
C        1.7793687435   -0.6964260973    1.1320466771
C        0.2947833883   -0.8619769493    1.5412928742
C        1.7686663779    0.1006872464   -0.1959480875
C       -0.4320274242    0.3324677274    0.9198610356
C        0.4848229212    0.9316744088   -0.1594770724
C       -0.7997811007    0.2357500879   -0.5389057159
C       -1.9571498969    1.0546540761   -1.0618707409
O       -0.6855051921   -1.0514809972   -1.1369396560
H        2.2994852394   -0.1093902218    1.8983994153
H        2.3014625629   -1.6550991645    1.0439282149
H       -0.1137774925   -1.8004286895    1.1534595154
H        0.1712843283   -0.8719112725    2.6284167188
H        2.6483070297    0.7444176072   -0.2909650996
H        1.7593144036   -0.5767458817   -1.0557652688
H       -1.0368274505    0.9736042308    1.5571965861
H        0.5459866679    2.0078946788   -0.3051752963
H       -1.8545489499    1.2380300613   -2.1394953837
H       -2.0024968437    2.0276569817   -0.5649638781
H       -2.9114833987    0.5434276463   -0.8824912501
H       -1.3458575065   -1.1140526411   -1.8416171024
20   
torsion grid (165,)
C        1.7670584623   -0.6792351883    1.1342043337
C        0.2834583134   -0.8440064088    1.5470682560
C        1.7515213590    0.1029960466   -0.2021275067
C       -0.4459861718    0.3444844158    0.9162333406
C        0.4706157196    0.9382063606   -0.1680166908
C       -0.8187935277    0.2402548941   -0.5370216386
C       -1.9818736171    1.0566412159   -1.0529018539
O       -0.7345912733   -1.0609295992   -1.1046438173
H        2.2860367033   -0.0817468193    1.8932533839
H        2.2921569393   -1.6371780544    1.0562520007
H       -0.1245804177   -1.7872749421    1.1712078968
H        0.1622720753   -0.8425716136    2.6345285886
H        2.6333470894    0.7414317513   -0.3112210242
H        1.7334944082   -0.5863582376   -1.0525706948
H       -1.0518328472    0.9891734234    1.5486639211
H        0.5343979198    2.0137419811   -0.3174033751
H       -1.8982704336    1.2230294591   -2.1355531193
H       -2.0133022190    2.0391417200   -0.5736566457
H       -2.9328990682    0.5497102921   -0.8504287045
H       -1.2143778932   -1.0497007393   -1.9459489034
20   
torsion grid (180,)
C        1.7778024160   -0.7076184493    1.1308675486
C        0.2967181502   -0.8561650437    1.5588770836
C        1.7596009637    0.0763112009   -0.2046591381
C       -0.4289666050    0.3339766550    0.9262561634
C        0.4838542306    0.9186767211   -0.1649137068
C       -0.8153798426    0.2277591786   -0.5214805930
C       -1.9779813124    1.0507004820   -1.0296520986
O       -0.7594402391   -1.0801847228   -1.0700847036
H        2.3119779121   -0.1176684426    1.8851853523
H        2.2905151141   -1.6716479170    1.0465174949
H       -0.1227975139   -1.7993670330    1.1965636081
H        0.1866106868   -0.8436730536    2.6474646166
H        2.6441770767    0.7104904793   -0.3166341631
H        1.7367292367   -0.6130192121   -1.0552261113
H       -1.0274397198    0.9845286974    1.5593510359
H        0.5521054276    1.9933915243   -0.3177366298
H       -1.9061451832    1.2092273162   -2.1144938507
H       -1.9972540311    2.0370536184   -0.5571912280
H       -2.9281970164    0.5484519140   -0.8156026050
H       -1.0279981446   -1.0209651573   -2.0000395194
