26   
torsion grid (-105,)
C        2.4670183469   -1.3807264852    0.1228891250
C       -1.0383717643   -1.0089447805    0.0049015674
C        0.6506721551    0.9512925903   -1.0044028154
C        0.9200474542   -1.5876818185   -1.5473613779
C       -2.1253485559   -0.0029142530    0.6253974767
C       -0.7776688012    1.4172588531   -1.0130216199
C        0.4291756300   -0.5599271483   -0.4968604116
N        2.3324132278   -1.7325575264   -1.1576064391
N        3.5346061702   -1.5325764471    0.8938735979
O        0.0250893711    1.2258663675    1.6141509927
O       -2.0022102678    2.6682824587    1.0784730726
O        1.3959425949   -0.8197535240    0.6209482976
S       -1.1687039943    1.4968532440    0.8009498997
H       -0.8443296514   -1.7962588207    0.7351785700
H       -1.5048517893   -1.4933812330   -0.8572322565
H        1.1190801156    0.9573173522   -1.9916203470
H        1.2660929797    1.5022281658   -0.2971853766
H        0.4075043150   -2.5518901428   -1.4685670975
H        0.8283501189   -1.2089826987   -2.5656617204
H       -2.9627990834    0.2012824107   -0.0392584984
H       -2.4813398772   -0.3618966479    1.5926767063
H       -0.8928661291    2.4385149149   -1.3898809599
H       -1.4791436249    0.7755381380   -1.5361131659
H        3.0100281919   -2.2868592140   -1.6688659478
H        3.5175505188   -1.1437901460    1.8318693989
H        4.3757043956   -1.9978059470    0.5744109826
26   
torsion grid (-90,)
C        2.3905337081   -1.3671983185    0.1854497778
C       -1.0630327770   -1.0241792262   -0.1262376790
C        0.5508762177    0.8807591261   -1.1055965744
C        0.9403287687   -1.6534848036   -1.5661511324
C       -1.9796165599   -0.0570307086    0.7113833441
C       -0.8098773098    1.5435621554   -0.9999969812
C        0.3743912839   -0.5993456857   -0.5774418344
N        2.3205909644   -1.7953006554   -1.0756113828
N        3.4172097247   -1.4708260810    1.0175849584
O        0.0862433386    1.4432834761    1.5520291971
O       -2.1469747796    2.5984563456    1.1122055533
O        1.2966821107   -0.7805656760    0.5954256045
S       -1.1697118176    1.5553045236    0.7966529226
H       -0.9481739743   -1.9641015709    0.4184164412
H       -1.5912727039   -1.2729832957   -1.0524042210
H        0.9061930550    0.8719101136   -2.1393330480
H        1.2776155119    1.4039730019   -0.4864831300
H        0.4153655653   -2.6121127319   -1.5038342398
H        0.9273546188   -1.2997746859   -2.5969805233
H       -2.9502895300    0.1013124905    0.2416022693
H       -2.1225726245   -0.4194604232    1.7312091352
H       -0.7811934813    2.5870625200   -1.3268951132
H       -1.6234299511    1.0408906319   -1.5205559168
H        3.0321397769   -2.3574510729   -1.5285913722
H        3.3539081126   -1.0246081719    1.9277440061
H        4.2739032259   -1.9504251976    0.7685915547
26   
torsion grid (-75,)
C        2.3449802235   -1.3880583836    0.2314933070
C       -1.0620030722   -1.0443193563   -0.2535574461
C        0.5177624245    0.7971017336   -1.2065083243
C        1.0076281029   -1.7196143810   -1.6074849633
C       -1.7504120396   -0.1629006796    0.8245604480
C       -0.7521366147    1.6134153676   -0.9749032762
C        0.3663252526   -0.6621765470   -0.6680507263
N        2.3481809889   -1.8593014058   -1.0150837283
N        3.3214690363   -1.4546347559    1.1251748030
O        0.1644098189    1.5966950664    1.5229232228
O       -2.2083113344    2.4687153335    1.1315209713
O        1.2259704726   -0.7964336315    0.5582556256
S       -1.1177186326    1.5505517344    0.8020244628
H       -1.0557804509   -2.0794835023    0.0990023409
H       -1.6596675249   -1.0352701085   -1.1710545466
H        0.7358157152    0.7713100756   -2.2776306386
H        1.3556767336    1.2791877873   -0.7019927717
H        0.4788028584   -2.6774288264   -1.5814387128
H        1.0765539215   -1.3724275471   -2.6381228714
H       -2.8272820280   -0.1073843174    0.6603290465
H       -1.5568675226   -0.5337769039    1.8330918194
H       -0.5998589347    2.6656219673   -1.2293715792
H       -1.6315999762    1.2536665918   -1.5121994890
H        3.0926547206   -2.4198802675   -1.4138291497
H        3.2054065142   -0.9703621208    2.0105472536
H        4.1972202568   -1.9290267582    0.9406622086
26   
torsion grid (-60,)
C        2.2900830462   -1.3929153837    0.2712712881
C       -1.0886269884   -1.0633371915   -0.3192749532
C        0.4772164433    0.7220422538   -1.2977350940
C        1.0292611689   -1.7815333218   -1.6159586091
C       -1.6218485685   -0.2326654293    0.8630061196
C       -0.6752201673    1.6742450130   -0.9533878621
C        0.3389769140   -0.7106436602   -0.7274042741
N        2.3335841753   -1.9253251371   -0.9483427078
N        3.2340016526   -1.4174331852    1.2012404710
O        0.0916461268    1.7015290407    1.5783710037
O       -2.3273977391    2.3628413514    1.0408982309
O        1.1624450291   -0.7836359940    0.5297891620
S       -1.1431167310    1.5399021488    0.7925910694
H       -1.1460199241   -2.1213211469   -0.0462797116
H       -1.7243911049   -0.9285989790   -1.2004670785
H        0.5358810501    0.6588355920   -2.3881914481
H        1.4208319740    1.1466287743   -0.9482819477
H        0.4923514883   -2.7347694476   -1.6119932250
H        1.1622066295   -1.4458936533   -2.6444129892
H       -2.7121651456   -0.2613166287    0.8946552402
H       -1.2220794114   -0.5885610912    1.8138006642
H       -0.3851276174    2.7171759564   -1.1013472761
H       -1.5777034625    1.4836215066   -1.5396320938
H        3.0986248185   -2.4873653800   -1.3037158496
H        3.0870061296   -0.8890004526    2.0563917858
H        4.1162257052   -1.8977805849    1.0703941612
26   
torsion grid (-45,)
C        2.2259690255   -1.3058344793    0.2946919782
C       -1.1522433551   -1.0308309678   -0.2902589179
C        0.3588338814    0.7550451578   -1.3036447387
C        0.9804497360   -1.7153361102   -1.6026706677
C       -1.6171469507   -0.2656681481    0.9566223414
C       -0.6326943542    1.8044140765   -0.7634609593
C        0.2644767003   -0.6602312969   -0.7143674062
N        2.2711832070   -1.8669258439   -0.9112810092
N        3.1675270146   -1.3088605845    1.2272774715
O       -0.0659505462    1.7249551972    1.8296709269
O       -2.4633855771    2.2891961188    1.1096443885
O        1.0991096080   -0.6883918537    0.5367233785
S       -1.2221506227    1.5319478798    0.9385500612
H       -1.2180405827   -2.1018995230   -0.0754956330
H       -1.8165606620   -0.8325125422   -1.1380556748
H        0.1819745388    0.6709446165   -2.3801191355
H        1.3869335010    1.1075597266   -1.1833852752
H        0.4463685446   -2.6694057590   -1.6283248614
H        1.1359318856   -1.3603064627   -2.6219739228
H       -2.7004001180   -0.3365428364    1.0687446258
H       -1.1325993392   -0.6393942510    1.8588633740
H       -0.1882215869    2.8013517996   -0.7374128514
H       -1.5367067175    1.8515085252   -1.3752141943
H        3.0390409675   -2.4329921358   -1.2540672054
H        3.0125845729   -0.7716765837    2.0757030233
H        4.0498574901   -1.7926796459    1.1104774510
26   
torsion grid (-30,)
C        2.2007645901   -1.1770613535    0.2721977028
C       -1.1932690884   -1.0388498335   -0.3333362818
C        0.2766272547    0.7140295900   -1.4376927929
C        0.9671728438   -1.7354490724   -1.5955115616
C       -1.6741290014   -0.2540461201    0.8933426003
C       -0.5129936224    1.8601878623   -0.7644361430
C        0.2190276171   -0.6584654325   -0.7643904697
N        2.2661970664   -1.7962521848   -0.9043887248
N        3.1409992923   -1.0960352895    1.2020792804
O       -0.2199564448    1.7469001285    1.8815375592
O       -2.5317831180    2.2955944904    0.9150414272
O        1.0509018339   -0.5905780872    0.4846239770
S       -1.2756220484    1.5429626558    0.8755391580
H       -1.2469676792   -2.1053559128   -0.0943871483
H       -1.8564782400   -0.8676473689   -1.1876276836
H       -0.1213731434    0.5732150156   -2.4471527433
H        1.3266595023    0.9988118730   -1.5546504341
H        0.4708482507   -2.7093629724   -1.5630700351
H        1.1030019709   -1.4314925982   -2.6344161279
H       -2.7595063920   -0.3150626391    0.9887177489
H       -1.2064176762   -0.6187971922    1.8079578916
H        0.1209046999    2.7266143611   -0.5688122982
H       -1.3445620066    2.1808492121   -1.3936621427
H        3.0532435335   -2.3531876879   -1.2174996525
H        2.9612550502   -0.5296021508    2.0264772816
H        4.0386986720   -1.5569782106    1.1126657946
26   
torsion grid (-15,)
C        2.2276928837   -1.1508887514    0.2072711727
C       -1.1824798583   -1.0595440016   -0.3324170904
C        0.2390502592    0.7033796288   -1.4665159114
C        0.9577961623   -1.7355223899   -1.6288209703
C       -1.6797464345   -0.2600299925    0.8782224516
C       -0.3194778345    1.8884334896   -0.6501205249
C        0.2180159943   -0.6638346338   -0.7866817052
N        2.2752970094   -1.7696071650   -0.9706689589
N        3.1863629557   -1.0597977368    1.1170104294
O       -0.2935299845    1.7105412408    2.0072943484
O       -2.5016279123    2.2936230671    0.8371306981
O        1.0758841313   -0.5758364272    0.4434157464
S       -1.2507645892    1.5318065683    0.9035094439
H       -1.2105325318   -2.1209067747   -0.0676282919
H       -1.8521594872   -0.9254758598   -1.1876802626
H       -0.3449864726    0.5866489305   -2.3846466963
H        1.2632884305    0.9339653175   -1.7769942143
H        0.4786339450   -2.7170351635   -1.5754965660
H        1.0598884007   -1.4363092062   -2.6732361765
H       -2.7682941945   -0.2946132525    0.9447397095
H       -1.2468618914   -0.6390130793    1.8043836700
H        0.4816862921    2.5356681519   -0.2909987288
H       -1.0063358681    2.4841560895   -1.2519069188
H        3.0599791074   -2.3231014446   -1.2958422906
H        3.0148723065   -0.5045625224    1.9507500066
H        4.0851383062   -1.5151554994    1.0106088947
26   
torsion grid (0,)
C        2.1930513348   -1.1155591662    0.2763652908
C       -1.2165518696   -1.0585144185   -0.2662607737
C        0.1874115965    0.6902346340   -1.4407299685
C        0.9243262700   -1.7485500766   -1.5456348949
C       -1.7242921382   -0.2261669215    0.9141469589
C       -0.2916509503    1.8922718078   -0.6079333693
C        0.1802824788   -0.6601255091   -0.7304985638
N        2.2401420528   -1.7651860905   -0.8842015667
N        3.1542934832   -1.0064029466    1.1819119135
O       -0.6625973805    1.9430669408    2.0316354365
O       -2.7019980639    2.2235786103    0.4929021078
O        1.0426027054   -0.5294564524    0.4969722267
S       -1.4214035119    1.5872832263    0.8238200868
H       -1.2297415852   -2.1101573334    0.0365465710
H       -1.8864511548   -0.9646843509   -1.1267306793
H       -0.4500905337    0.5678965412   -2.3222229469
H        1.1949433839    0.9055198993   -1.8124499870
H        0.4475724757   -2.7297652251   -1.4711319666
H        1.0273416897   -1.4723860266   -2.5963727103
H       -2.8071451312   -0.3170736713    1.0157644301
H       -1.2453188107   -0.5321253471    1.8445857125
H        0.5509581608    2.4027376406   -0.1399843959
H       -0.8341838584    2.6040218717   -1.2311861490
H        3.0243915854   -2.3289821698   -1.1925600703
H        2.9871678104   -0.4385390556    2.0075312505
H        4.0499080635   -1.4701697107    1.0843787591
26   
torsion grid (15,)
C        2.2194629927   -1.1727768596    0.2841553668
C       -1.1835881988   -1.0487468074   -0.1504382018
C        0.1795155264    0.7196936542   -1.3573878546
C        0.8933555016   -1.7189254293   -1.5276847435
C       -1.6617852021   -0.1951868290    1.0211252810
C       -0.3218009012    1.9186095661   -0.5363481442
C        0.1923917732   -0.6367973085   -0.6634798470
N        2.2086476636   -1.8219335888   -0.8761685614
N        3.2081255643   -1.1196052605    1.1661392735
O       -1.1444646035    2.2375222605    1.9878525417
O       -2.8968527337    1.9681976460    0.1235246933
O        1.1068963712   -0.5269330074    0.5323477338
S       -1.6121239371    1.6149123888    0.7449822076
H       -1.1644717514   -2.0929887239    0.1779483205
H       -1.8835527189   -0.9874440405   -0.9902548764
H       -0.4513615010    0.5909184857   -2.2438179082
H        1.1846602959    0.9538074573   -1.7251744830
H        0.3749479519   -2.6808256572   -1.4951145688
H        1.0054162480   -1.4017636236   -2.5659755807
H       -2.7125235838   -0.3921074119    1.2444954638
H       -1.0651291548   -0.3780995091    1.9158132932
H        0.4973111488    2.3760780737    0.0211440639
H       -0.7711486712    2.6713864958   -1.1856138150
H        2.9615657407   -2.4150715972   -1.2067871478
H        3.0928835580   -0.5571922917    2.0035539122
H        4.0772842052   -1.6247057603    1.0387273131
26   
torsion grid (30,)
C        2.2380814473   -1.1942857913    0.2791756769
C       -1.1620283338   -1.0082682698   -0.0370142843
C        0.1744847974    0.7737153606   -1.2686832387
C        0.8460759944   -1.6714438451   -1.5031821929
C       -1.6305798231   -0.1132166811    1.1050619573
C       -0.2996180942    1.9646905928   -0.4246473230
C        0.1939507769   -0.5935775165   -0.5953846779
N        2.1714883953   -1.8309950024   -0.8855148628
N        3.2554463897   -1.1855350311    1.1302364465
O       -1.5673844328    2.4455542577    1.8850760137
O       -2.9290679786    1.7745786050   -0.1940994863
O        1.1568238918   -0.5127020934    0.5673149702
S       -1.7405518118    1.6539382714    0.6651328484
H       -1.1147710573   -2.0397193328    0.3276991581
H       -1.8836385514   -0.9873333737   -0.8606881912
H       -0.4788220040    0.6665653893   -2.1420367255
H        1.1735500510    1.0059994913   -1.6545423484
H        0.2999206036   -2.6181061507   -1.4839773729
H        0.9442967405   -1.3300269956   -2.5351914585
H       -2.6495584650   -0.3647086639    1.4085877183
H       -0.9743758241   -0.1843773896    1.9745131696
H        0.4925314721    2.3203231902    0.2379306420
H       -0.6238552638    2.7886687872   -1.0629417532
H        2.8961473034   -2.4419395911   -1.2455068750
H        3.1840614000   -0.6348655577    1.9798432171
H        4.1023137739   -1.7181898677    0.9693715857
26   
torsion grid (45,)
C        2.2441180787   -1.1844745230    0.2616524816
C       -1.1575357781   -0.9695949620    0.0448731691
C        0.1667771990    0.8289132269   -1.2007179244
C        0.7964736638   -1.6242914304   -1.4849903980
C       -1.6594711578   -0.0221392028    1.1306913061
C       -0.2802531452    1.9961734671   -0.3150108274
C        0.1826990777   -0.5502279862   -0.5471743109
N        2.1385349799   -1.8024363190   -0.9100984252
N        3.2861565171   -1.2010298267    1.0827330497
O       -1.9884899516    2.5839293464    1.6661663238
O       -2.8839474244    1.6092234056   -0.5413906315
O        1.1792950370   -0.4954370254    0.5907618016
S       -1.8680459851    1.6800199133    0.5218691942
H       -1.0736718160   -1.9776848461    0.4646164270
H       -1.8832408642   -1.0147626341   -0.7742092893
H       -0.5081425438    0.7561439996   -2.0609597122
H        1.1626780894    1.0546999240   -1.5992211573
H        0.2419176430   -2.5659151698   -1.4575706152
H        0.8653109616   -1.2732731366   -2.5160898016
H       -2.6568126273   -0.3094390940    1.4729737943
H       -0.9911898849    0.0188472126    1.9938546125
H        0.4473953442    2.2272644989    0.4668795909
H       -0.4542943969    2.8937278787   -0.9125903206
H        2.8463673968   -2.4154225581   -1.2989341778
H        3.2474977247   -0.6647960747    1.9433585387
H        4.1200632296   -1.7431143577    0.8890878409
26   
torsion grid (60,)
C        2.2761966636   -1.2211050691    0.2088062206
C       -1.1225535766   -0.9698622441    0.1399719920
C        0.1860224005    0.8462836065   -1.1479893630
C        0.7506286025   -1.6243185243   -1.4794830497
C       -1.6749586243    0.0249890814    1.1652336343
C       -0.2468780496    1.9590375673   -0.1919615680
C        0.1932036633   -0.5468483113   -0.5116373571
N        2.1121450236   -1.8284554068   -0.9616568382
N        3.3511922852   -1.2633981660    0.9859975770
O       -2.3177046520    2.6260652511    1.3867392136
O       -2.7605597351    1.3987016719   -0.8285700396
O        1.2388103120   -0.5155787536    0.5861228120
S       -1.9451417759    1.6389702294    0.3735604439
H       -0.9857092177   -1.9454265156    0.6186026296
H       -1.8563313987   -1.0984913067   -0.6627687598
H       -0.5042908904    0.8174634567   -1.9971026017
H        1.1840806775    1.0674489936   -1.5433540512
H        0.1824758072   -2.5571932658   -1.4355597219
H        0.7822509943   -1.2665986403   -2.5100716385
H       -2.6531728988   -0.2954313076    1.5320589541
H       -1.0116104472    0.1839904076    2.0185021048
H        0.3859879273    2.0486940724    0.6936698620
H       -0.2816004251    2.9250121951   -0.7019952800
H        2.7933832904   -2.4494418634   -1.3837943318
H        3.3592055840   -0.7340631491    1.8515035880
H        4.1651893560   -1.8204012503    0.7540552789
26   
torsion grid (75,)
C        2.2434996398   -1.2785693855    0.1918114246
C       -1.1596338281   -0.9686411360    0.2618318197
C        0.1961542338    0.8623395045   -1.0565243524
C        0.6393263152   -1.6430424809   -1.4293464988
C       -1.8160430632    0.0611895388    1.2100156632
C       -0.2725976020    1.8733132457   -0.0172051439
C        0.1478986327   -0.5536814284   -0.4414372110
N        2.0248310060   -1.8586382673   -0.9836934865
N        3.3487912389   -1.3502045385    0.9235906184
O       -2.6295003044    2.6306130107    1.0571187560
O       -2.6432911970    1.1884525544   -1.0635557364
O        1.2307104610   -0.5698685307    0.6253819242
S       -2.0533874403    1.5699951392    0.2303741872
H       -0.9672063725   -1.8979898956    0.8080598665
H       -1.8795956852   -1.1995812411   -0.5292877084
H       -0.4625497254    0.8935195201   -1.9273154044
H        1.2189137886    1.0746124391   -1.3865814976
H        0.0657571107   -2.5704579234   -1.3498322147
H        0.6177816588   -1.2900492660   -2.4615855437
H       -2.7983878569   -0.2918825447    1.5321113215
H       -1.2168924375    0.3196165635    2.0844341033
H        0.2241444591    1.8011723898    0.9504775833
H       -0.1825276719    2.9000308344   -0.3829914931
H        2.6789273821   -2.4821384426   -1.4433454163
H        3.4001349541   -0.8345060427    1.7956758896
H        4.1436899231   -1.9156997476    0.6498853056
26   
torsion grid (90,)
C        2.2813613062   -1.5764870428   -0.0771680447
C       -0.5182611846   -0.5017392296    1.0163950082
C        0.4683379504    1.3230791475   -0.6516439520
C        0.3698486627   -1.2257368779   -1.3241430583
C       -2.0364399316   -0.0874756388    0.9184177259
C       -0.6988382776    2.0088307404    0.0352518755
C        0.4472593615   -0.1763882584   -0.1809098766
N        1.4982172301   -2.1214189918   -0.9964468478
N        3.4363112810   -2.0475804190    0.3800024197
O       -3.3859123429    1.8453411870   -0.4120120952
O       -1.8284992280    0.2955460861   -1.7112122111
O        1.8149562814   -0.4500693349    0.4082041096
S       -2.1654416567    1.0441776320   -0.4834271105
H       -0.0827318244   -0.0204717602    1.8950029072
H       -0.4573546869   -1.5789335773    1.1951540705
H        0.3715542220    1.3856432029   -1.7333283471
H        1.4166194747    1.7740278320   -0.3478280537
H       -0.5694383731   -1.7739419360   -1.3174331071
H        0.5117226234   -0.7805346821   -2.3094712102
H       -2.6922510800   -0.9387059092    0.7259428931
H       -2.3740697245    0.4464515831    1.8068849002
H       -0.6607423127    2.0228742092    1.1230540407
H       -0.8414687871    3.0335778107   -0.3186313255
H        1.7265979273   -2.9604244589   -1.5175209691
H        3.9262013068   -1.5400255953    1.1087417127
H        3.8656263915   -2.8830775894    0.0010790823
26   
torsion grid (105,)
C        2.3071151175   -1.5313903704   -0.0686357871
C       -0.6024795208   -0.5796409891    0.9386130016
C        0.4450737380    1.3173663885   -0.7673778338
C        0.4343663769   -1.2634639109   -1.3935594612
C       -2.0892515368    0.0273511168    1.0184448926
C       -0.6161319065    1.9136593408    0.1133218127
C        0.4263515329   -0.2019599534   -0.2615352265
N        1.5960704468   -2.1004317971   -1.0302324208
N        3.4580694709   -1.9556162461    0.4425356559
O       -3.2783919687    1.9246731643   -0.5317422969
O       -1.8161633558    0.1535812974   -1.6231667912
O        1.7685207801   -0.4308094276    0.4007696566
S       -2.1320294393    1.0182131447   -0.4689451495
H       -0.0799029436   -0.3118230056    1.8589810366
H       -0.6791487736   -1.6689066891    0.9292139729
H        0.2026093067    1.3792232356   -1.8250623120
H        1.4368516181    1.7385786952   -0.5859071564
H       -0.4772084580   -1.8558845297   -1.4099309288
H        0.5844232958   -0.8163166344   -2.3771892770
H       -2.8468442860   -0.7577376379    0.9906273695
H       -2.2456168038    0.6824475744    1.8737792656
H       -0.4691172644    1.7797345002    1.1790632203
H       -0.7973647135    2.9740590749   -0.0878513335
H        1.8808497346   -2.9302960137   -1.5377776029
H        3.8893384730   -1.4297767517    1.1948018555
H        3.9402462627   -2.7708496865    0.0836979962
26   
torsion grid (120,)
C        2.3066038476   -1.4506834637   -0.0585029802
C       -0.7234079966   -0.6131028856    0.8738385253
C        0.4094455646    1.3502904504   -0.8743496258
C        0.4617060899   -1.2891271906   -1.4394525030
C       -2.1693102490    0.1560292553    1.0920958244
C       -0.5443438478    1.8234380290    0.1647956262
C        0.3814368763   -0.2054727217   -0.3358775072
N        1.6648935626   -2.0515552330   -1.0485521125
N        3.4562585154   -1.8187396868    0.4980337191
O       -3.1501421568    2.0087734781   -0.6744486322
O       -1.8402750296    0.0268269086   -1.5412846772
O        1.6957238609   -0.3795896456    0.3905130963
S       -2.1101224553    1.0007611872   -0.4643928919
H       -0.1596328886   -0.5460731143    1.8059927762
H       -0.9488635928   -1.6653158990    0.6976977525
H        0.0533782587    1.4250871726   -1.8984258053
H        1.4277786261    1.7333700991   -0.7836499113
H       -0.4147401572   -1.9324206521   -1.4567124062
H        0.5984296324   -0.8502939178   -2.4289898786
H       -2.9800513877   -0.5689359087    1.1803261229
H       -2.1800196157    0.8824421001    1.9009956169
H       -0.2814194200    1.5642311028    1.1805049636
H       -0.7709330209    2.8947210332    0.1164018622
H        2.0050744976   -2.8716328886   -1.5374844334
H        3.8352239648   -1.2699201957    1.2618596150
H        3.9890085827   -2.6116951370    0.1615809328
