27   
torsion grid (-165,)
C        0.5714176063   -2.1573734390   -1.6241169608
C       -0.5715391782    0.3963337755   -0.7373798043
C       -1.2797251049    0.7596992743   -3.1435366474
C       -1.7371252134    1.1854866613   -0.1410915588
C       -2.5102045351    1.5896837102   -2.7680614130
C       -0.9260129209   -0.2901521872   -2.0737010144
C        0.1427089807   -1.5735145057   -3.9374562293
N        1.7348055870   -2.8347953035   -1.9714841478
N        0.2031120442   -1.1391082760   -2.5274358771
O       -0.0659763792   -2.4517491833   -0.6159261674
O       -1.0754998460    3.4098299062   -1.4574286460
O       -3.5253143396    3.0898099891   -0.7877949633
S       -2.2412602549    2.5302097591   -1.2423292846
H        0.2774544239    1.0691972201   -0.8959662636
H       -0.2790283086   -0.3542495551   -0.0059290622
H       -1.5103281663    0.2798904425   -4.0973527129
H       -0.4269493032    1.4264196038   -3.3084272898
H       -2.6249051881    0.5700610609    0.0308362694
H       -1.4588973089    1.6711015573    0.7980942917
H       -2.7388810601    2.3404031180   -3.5293054003
H       -3.3993208116    0.9743775933   -2.6023421767
H       -1.8086290660   -0.9295870867   -1.9093488590
H       -0.8550862585   -1.9577483078   -4.1933103350
H        0.3895241138   -0.7504156157   -4.6115990232
H        0.8581159683   -2.3758738272   -4.1039020108
H        2.0676892421   -3.4329821752   -1.2244034162
H        2.4586496280   -2.2949960482   -2.4311737760
27   
torsion grid (-150,)
C        0.4761653788   -2.2152970151   -1.6308368019
C       -0.5101725174    0.4598982812   -0.7701137416
C       -1.3643293682    0.6984917767   -3.1468096020
C       -1.6580536749    1.2436158336   -0.1340710566
C       -2.5972929837    1.5052577508   -2.7298691820
C       -0.9270397469   -0.2908668149   -2.0526547215
C        0.3250873054   -1.4145665341   -3.9408865806
N        1.5724329465   -3.0033652303   -1.9806534060
N        0.1955629258   -1.1538180831   -2.4991648746
O       -0.1884826432   -2.4606410236   -0.6249478920
O       -1.1358991742    3.4159165190   -1.5906679387
O       -3.5336252320    3.0705252247   -0.7625220419
S       -2.2637418368    2.5206385274   -1.2651452832
H        0.3103337937    1.1445189312   -1.0073912697
H       -0.1529914146   -0.2585357049   -0.0331848649
H       -1.6313080571    0.1697468035   -4.0651673617
H       -0.5498762219    1.3895576584   -3.3869689459
H       -2.5152821300    0.6130276818    0.1187475758
H       -1.3385618987    1.7808485052    0.7629487586
H       -2.8975312532    2.2153096382   -3.5051161014
H       -3.4530993348    0.8705962827   -2.4823280898
H       -1.7849260974   -0.9347063869   -1.8091631838
H       -0.5930089930   -1.8482731204   -4.3609370817
H        0.5618652731   -0.4951301574   -4.4795757816
H        1.1286742676   -2.1248084782   -4.1197534913
H        1.8297869687   -3.6236839659   -1.2211804737
H        2.3641080692   -2.5242987386   -2.3944590450
27   
torsion grid (-135,)
C        0.3814913313   -2.2621012136   -1.6310447038
C       -0.4470046983    0.5532720991   -0.7894451812
C       -1.4238177222    0.6477353409   -3.1409070306
C       -1.5906986950    1.3285079438   -0.1349737114
C       -2.6718835923    1.4164006588   -2.6960535043
C       -0.8984854334   -0.2604593202   -2.0195734903
C        0.5649947590   -1.2635724071   -3.8669006252
N        1.2752302944   -3.2339477630   -2.0758557692
N        0.2116753040   -1.1494403940   -2.4494217575
O       -0.2451811061   -2.4185068170   -0.5808917702
O       -1.2387832248    3.4392063284   -1.7274357639
O       -3.5753554285    3.0395171022   -0.7614272959
S       -2.3084405800    2.5163669009   -1.2989295972
H        0.3454455848    1.2487223591   -1.0844574641
H       -0.0403925336   -0.1349776553   -0.0480556753
H       -1.7050137818    0.0543446530   -4.0163890764
H       -0.6634883632    1.3699632217   -3.4548516437
H       -2.4064537882    0.6798808588    0.1970027309
H       -1.2485600681    1.9282093381    0.7127724134
H       -3.0453160193    2.0756378343   -3.4842722068
H       -3.4822590504    0.7566438788   -2.3733036481
H       -1.7261627438   -0.9066143207   -1.6999136504
H       -0.0677296675   -1.9798413408   -4.4071232640
H        0.4915360093   -0.2899735574   -4.3473845663
H        1.6064329933   -1.5717477801   -3.9815142453
H        1.4972996919   -3.8874901246   -1.3336305188
H        2.0797148792   -2.9457776632   -2.6178914630
27   
torsion grid (-120,)
C        0.4107598564   -2.2650221785   -1.6069542813
C       -0.4248501019    0.6125736248   -0.7877662673
C       -1.4551933830    0.5819934816   -3.1265956989
C       -1.5788247312    1.3862469848   -0.1486588696
C       -2.7216402776    1.3239762849   -2.6896741651
C       -0.8792557732   -0.2576800683   -1.9769389433
C        0.7804962125   -1.0992072984   -3.7485576259
N        1.3147062942   -3.2194676825   -2.0764792976
N        0.2217255511   -1.1491311368   -2.4015154580
O       -0.1384496164   -2.3968680968   -0.5095370265
O       -1.3199195326    3.4240108243   -1.8524851851
O       -3.6214569712    3.0137695290   -0.8080146503
S       -2.3546880999    2.4971827173   -1.3521096120
H        0.3487537390    1.3137079413   -1.1177674800
H        0.0065740864   -0.0439155749   -0.0307189106
H       -1.7164666297   -0.0611939179   -3.9735619105
H       -0.7323473592    1.3229618071   -3.4804855703
H       -2.3695912406    0.7302990035    0.2270753730
H       -1.2422848734    2.0345782356    0.6648295159
H       -3.1344192309    1.9369339072   -3.4954419257
H       -3.5020191409    0.6538622834   -2.3181194311
H       -1.6815624494   -0.9090053781   -1.6087564618
H        0.2356578116   -1.7306072754   -4.4664358496
H        0.7695738296   -0.0766323536   -4.1228852768
H        1.8279530112   -1.4090894007   -3.7234072891
H        1.2726739875   -4.0588700672   -1.5101588970
H        1.3528893826   -3.4054480345   -3.0707512844
27   
torsion grid (-105,)
C        0.3412830947   -2.3322874568   -1.6450404576
C       -0.4030213304    0.6261648597   -0.8202451903
C       -1.5363212930    0.4987597384   -3.1206333791
C       -1.5268654357    1.4388347378   -0.1750594991
C       -2.7775806315    1.2683370847   -2.6605990412
C       -0.9035627828   -0.2836015090   -1.9595549932
C        0.8884114405   -0.9763960613   -3.6499241585
N        1.2584030138   -3.2667156724   -2.1339599054
N        0.1718653605   -1.1901215726   -2.3985302555
O       -0.2376208012   -2.5067820410   -0.5688794281
O       -1.3060069109    3.3816760134   -1.9896249292
O       -3.5679109170    3.0687495469   -0.8310463423
S       -2.3351706864    2.5012013367   -1.4013391571
H        0.3696079207    1.3055061184   -1.1954687371
H        0.0440497339   -0.0109760282   -0.0540247802
H       -1.8352250631   -0.1926916031   -3.9159581368
H       -0.8348577858    1.2179460274   -3.5520437291
H       -2.3094328355    0.8073614645    0.2557834685
H       -1.1582026606    2.1197909780    0.5967605391
H       -3.2275700024    1.8449383900   -3.4733229486
H       -3.5418807109    0.6236333701   -2.2174558444
H       -1.6802687672   -0.9276356734   -1.5335245305
H        0.3997498387   -1.4518290364   -4.5125885343
H        0.9723854260    0.0913460668   -3.8553389766
H        1.9072271632   -1.3596336625   -3.5616249934
H        1.2014955887   -4.1287118580   -1.6035422539
H        1.2958143848   -3.4169053968   -3.1350862850
27   
torsion grid (-90,)
C        0.2744504897   -2.4034542683   -1.6977204493
C       -0.3838963192    0.6348654745   -0.8563829022
C       -1.6181606093    0.4130856452   -3.1063772960
C       -1.4735479446    1.4935410638   -0.2114130370
C       -2.8264524324    1.2251107455   -2.6333442736
C       -0.9319800888   -0.3149452240   -1.9391199805
C        0.9759166385   -0.8633416769   -3.5236662838
N        1.2176280613   -3.3029063625   -2.2036321077
N        0.1199127301   -1.2289036584   -2.4013946253
O       -0.3412260124   -2.6389728960   -0.6543911917
O       -1.2922134887    3.3411775403   -2.1266950067
O       -3.5093913545    3.1283935380   -0.8644887910
S       -2.3123034815    2.5097384287   -1.4567542554
H        0.3869076784    1.2873658372   -1.2799263712
H        0.0794697497    0.0229406427   -0.0778950642
H       -1.9621023448   -0.3241075250   -3.8403686144
H       -0.9305078506    1.0923314202   -3.6172698734
H       -2.2484178389    0.8943208070    0.2756902678
H       -1.0687896411    2.2041255995    0.5143434568
H       -3.3042857640    1.7678926495   -3.4534277654
H       -3.5794080639    0.6158315491   -2.1252537190
H       -1.6791343964   -0.9521322033   -1.4577793908
H        0.5687610379   -1.1841545606   -4.4924259513
H        1.1056441339    0.2207289772   -3.5546385129
H        1.9688086577   -1.2976855044   -3.3919526513
H        1.1488069188   -4.1940494305   -1.7251816288
H        1.2843058865   -3.3968384473   -3.2104064607
27   
torsion grid (-75,)
C        0.1829702213   -2.4827813199   -1.7821774083
C       -0.3544022785    0.6670007684   -0.9005461986
C       -1.6951460583    0.3372925703   -3.0756942642
C       -1.4179354342    1.5535980688   -0.2497141101
C       -2.8749655276    1.1845018402   -2.5937990838
C       -0.9479920093   -0.3350388761   -1.9104230565
C        1.0669681723   -0.7879793386   -3.3725813084
N        1.1675957824   -3.3341615821   -2.2889721275
N        0.0812554808   -1.2545356259   -2.4021224718
O       -0.5109693544   -2.8080739288   -0.8155924372
O       -1.2956294501    3.3023509035   -2.2567349513
O       -3.4604216599    3.1813739596   -0.8936363055
S       -2.2980435067    2.5189326579   -1.5067998169
H        0.3917929585    1.3061963841   -1.3831682409
H        0.1503986664    0.0974848996   -0.1145309833
H       -2.0748335914   -0.4398310122   -3.7479031500
H       -1.0274816305    0.9788362387   -3.6581308779
H       -2.1758808597    0.9790087553    0.2906643631
H       -0.9848233963    2.2932918798    0.4290997063
H       -3.3864211563    1.6889795235   -3.4180832833
H       -3.6085315883    0.6095523554   -2.0212439892
H       -1.6577692733   -0.9641840487   -1.3684380286
H        0.8248871891   -1.0954479379   -4.3993291812
H        1.1132974887    0.3023625385   -3.3567059658
H        2.0617489357   -1.1595731405   -3.1148697771
H        1.0625915424   -4.2693542592   -1.9125090061
H        1.3365346883   -3.3198441131   -3.2879305246
27   
torsion grid (-60,)
C        0.0571857348   -2.5565010467   -1.9216774090
C       -0.3107162212    0.7190758417   -0.9569383014
C       -1.7659978531    0.2799905063   -3.0333085290
C       -1.3521595067    1.6185578778   -0.2877712480
C       -2.9257483221    1.1436312812   -2.5322311244
C       -0.9446242108   -0.3357232943   -1.8849173772
C        1.1740189731   -0.7549607033   -3.2069831680
N        1.0967192225   -3.3695620667   -2.3707160022
N        0.0625385927   -1.2626194717   -2.4077553478
O       -0.7739053361   -2.9731951848   -1.1111436996
O       -1.3500725511    3.2851919095   -2.3677759502
O       -3.4364847502    3.2072650287   -0.8854210416
S       -2.3052708962    2.5263817302   -1.5353616695
H        0.3936734011    1.3526913338   -1.5040855257
H        0.2515780461    0.1988943799   -0.1745580070
H       -2.1743822649   -0.5324609111   -3.6430874873
H       -1.1318371207    0.8919371263   -3.6826582400
H       -2.0755513030    1.0596891918    0.3129787547
H       -0.8931606387    2.3886085640    0.3383021003
H       -3.4824329150    1.6069457727   -3.3513632226
H       -3.6248100349    0.5908916056   -1.8978243282
H       -1.6098798142   -0.9572370843   -1.2821068118
H        1.1957813685   -1.2030430415   -4.2093302917
H        1.0630863597    0.3201995596   -3.3461779882
H        2.1376446415   -0.9350804105   -2.7180605790
H        0.9234823246   -4.3436566572   -2.1528281956
H        1.4701194254   -3.2159536760   -3.2990717888
27   
torsion grid (-45,)
C       -0.0499231145   -2.5856366389   -2.0657791596
C       -0.2608253497    0.7846049857   -1.0325322936
C       -1.8156373139    0.2377692793   -2.9993604152
C       -1.2941618961    1.6646486269   -0.3252203375
C       -2.9689247897    1.0955442797   -2.4736008085
C       -0.9216864035   -0.3224040486   -1.8755935555
C        1.2828905146   -0.7382191493   -3.0490517240
N        1.0054238950   -3.4145342273   -2.4376820159
N        0.0649553746   -1.2562029924   -2.4340908276
O       -1.0000756984   -3.0244604619   -1.4129866404
O       -1.4450085188    3.2812830272   -2.4364000910
O       -3.4501099307    3.1826632211   -0.8464851820
S       -2.3369396876    2.5165528951   -1.5414042897
H        0.3727981991    1.4308904323   -1.6458083086
H        0.3772651482    0.3204192637   -0.2726065766
H       -2.2368839496   -0.6058104520   -3.5548630577
H       -1.2216912885    0.8321560034   -3.7017184509
H       -1.9669279561    1.0975863445    0.3244960722
H       -0.8269751779    2.4625277158    0.2584857593
H       -3.5695970741    1.5250585119   -3.2799825777
H       -3.6288054808    0.5468631566   -1.7951824108
H       -1.5446319820   -0.9296094624   -1.2160841333
H        1.5101246436   -1.2608242002   -3.9852540723
H        1.1377766332    0.3084228947   -3.3164471452
H        2.1526275828   -0.8100930190   -2.3844682090
H        0.7606161646   -4.3931073954   -2.3461753729
H        1.5431218072   -3.1961304296   -3.2660766548
27   
torsion grid (-30,)
C       -0.1847592738   -2.5409044785   -2.2561354470
C       -0.1890137056    1.0007712302   -1.1151038953
C       -1.7954772956    0.0744745686   -2.8657948295
C       -1.2567601547    1.8646737195   -0.4376182773
C       -2.9984063316    0.8854159355   -2.3799421329
C       -0.8022772618   -0.2637978260   -1.7337611215
C        1.5215883867   -0.8057924334   -2.6989482066
N        0.7474898027   -3.4435966191   -2.7709892496
N        0.2108543546   -1.2194190787   -2.2111750532
O       -1.2751478511   -2.9254737818   -1.8241678331
O       -1.7174001408    3.2039299769   -2.6904688243
O       -3.5930928576    3.0883333596   -0.9515501953
S       -2.4643943902    2.4596255550   -1.6567565521
H        0.3094189878    1.6156964292   -1.8701132451
H        0.5562903681    0.7214635968   -0.3620620594
H       -2.1685861896   -0.8637005747   -3.2849576733
H       -1.2818339256    0.6240099122   -3.6617589906
H       -1.8196557941    1.3270827357    0.3305221253
H       -0.8314613939    2.7706507318    0.0025195528
H       -3.6733887413    1.1587359180   -3.1954823172
H       -3.5706310638    0.3642156259   -1.6069654303
H       -1.3560777379   -0.7914405851   -0.9524710472
H        1.5706555480   -0.7640246600   -3.7970995745
H        1.7685900938    0.1859728085   -2.3263795899
H        2.2925928690   -1.4906083560   -2.3349097478
H        0.3208017509   -4.3481492556   -2.9341280680
H        1.3488762987   -3.1381862936   -3.5261747957
27   
torsion grid (-15,)
C       -0.2190624241   -2.5175610532   -2.3712892714
C       -0.1766007053    1.0157568210   -1.1907234777
C       -1.8509119023    0.0893803936   -2.8707592076
C       -1.2217266948    1.8654422817   -0.4612410195
C       -3.0405988413    0.8803436696   -2.3244938850
C       -0.8067011296   -0.2515194634   -1.7866777009
C        1.5763768258   -0.8418682047   -2.6022905475
N        0.7386685901   -3.4421438332   -2.7853468731
N        0.1865188513   -1.1979319965   -2.3326612835
O       -1.3452295552   -2.8790393901   -2.0181179887
O       -1.7984256474    3.2124571287   -2.6818765255
O       -3.5890299239    3.0716013177   -0.8570632989
S       -2.4903551722    2.4559543755   -1.6190391448
H        0.2814221856    1.6379431320   -1.9653250103
H        0.6032537920    0.7460165897   -0.4699902893
H       -2.2298203102   -0.8470738957   -3.2861068600
H       -1.3738950740    0.6545658153   -3.6781575977
H       -1.7429653562    1.3172195277    0.3285115056
H       -0.7849217517    2.7724172196   -0.0346998796
H       -3.7555927366    1.1492963743   -3.1066579564
H       -3.5702137800    0.3479081291   -1.5291157133
H       -1.3245207919   -0.7838728108   -0.9825547596
H        1.8449784026   -1.0340457359   -3.6496432430
H        1.7337851740    0.2205709943   -2.4361738718
H        2.2665169257   -1.3955440037   -1.9552735484
H        0.3181490019   -4.3411768129   -2.9885497432
H        1.4396963987   -3.1551384087   -3.4565552877
27   
torsion grid (0,)
C        0.1033829302   -1.8208703697   -3.6331570732
C       -1.0744325660    0.0611023611   -0.6317019212
C       -0.7963739753    1.0520471402   -2.9533891357
C       -2.3684388569    0.8296499366   -0.3464011014
C       -2.0420775774    1.9356962770   -2.8776942360
C       -0.9262584515   -0.2466415411   -2.1293749442
C        1.1118348225   -1.6460039951   -1.3958565733
N        1.0498702579   -2.8134930832   -3.8759246205
N        0.2227398475   -1.1312669602   -2.4365014455
O       -0.8126279838   -1.6106137336   -4.4325524392
O       -1.1740658814    3.1822777715   -0.6854143698
O       -3.7019182094    3.0450511886   -1.0679822483
S       -2.3601610208    2.4477364609   -1.1694417487
H       -0.2336500789    0.6567002950   -0.2634042230
H       -1.1086773879   -0.8674023174   -0.0519772805
H       -0.6388033368    0.7811175209   -3.9986987996
H        0.0764613861    1.6160055959   -2.6092895735
H       -3.2613598205    0.3021472467   -0.6934637137
H       -2.4814682411    1.0555294890    0.7173453260
H       -1.9230817166    2.8662314917   -3.4392406246
H       -2.9439353805    1.4245825282   -3.2268757304
H       -1.8308995346   -0.7674907639   -2.4629839538
H        1.1152363912   -0.9753442692   -0.5400688820
H        0.8274770616   -2.6504920967   -1.0577864464
H        2.1471912348   -1.6779040456   -1.7514164685
H        1.9814853025   -2.7133968007   -3.4943830929
H        1.0299749854   -3.1114398982   -4.8441297043
27   
torsion grid (15,)
C        0.1689857469   -1.7688214613   -3.6448102124
C       -1.0099355278    0.1082990288   -0.6206305530
C       -0.8284326719    1.0157917180   -2.9763368395
C       -2.3035422222    0.8692856633   -0.3151466192
C       -2.0880790677    1.8786195620   -2.8958783422
C       -0.9111920342   -0.2596030350   -2.1104371144
C        0.9656523264   -1.7852135371   -1.3141378656
N        1.2006905427   -2.6528863428   -3.9624878962
N        0.2607443129   -1.1201145014   -2.4150785970
O       -0.7761929391   -1.6009363283   -4.4172888164
O       -1.1864345370    3.2373907859   -0.7852370977
O       -3.7195661539    3.0164312077   -1.0788169290
S       -2.3653800279    2.4516605382   -1.2002880308
H       -0.1589637805    0.7235741770   -0.3124681207
H       -1.0137077517   -0.7909607882    0.0021835264
H       -0.6902380919    0.7255177069   -4.0183612632
H        0.0405515931    1.6048625489   -2.6666975172
H       -3.1997060199    0.3123167238   -0.6030113343
H       -2.3772851912    1.1357605589    0.7426517264
H       -2.0013297210    2.7886574511   -3.4956433114
H       -2.9902749595    1.3397723127   -3.1991138828
H       -1.8181887788   -0.8091504362   -2.3925112450
H        1.2411789637   -1.0573327327   -0.5509662619
H        0.3660175954   -2.5806320938   -0.8512837398
H        1.8918676622   -2.2348497484   -1.6668969235
H        2.1369429799   -2.4096867633   -3.6620145288
H        1.1532419529   -2.9142367862   -4.9410572350
27   
torsion grid (30,)
C        0.2504796051   -1.7116387700   -3.6555059175
C       -0.9540998136    0.1564468883   -0.6161565330
C       -0.8955479112    0.9512114607   -3.0109757220
C       -2.2250564156    0.9398855583   -0.2757958735
C       -2.1556255314    1.8099640387   -2.9052795471
C       -0.9238572522   -0.2886802110   -2.0899347496
C        0.7980970778   -1.9516387715   -1.2825558190
N        1.3919914412   -2.4375832237   -3.9928036738
N        0.2636865971   -1.1305385385   -2.3807136836
O       -0.6927245233   -1.6075640161   -4.4382184735
O       -1.1362719247    3.2790906441   -0.9269411659
O       -3.6822994656    3.0497557414   -1.0661227614
S       -2.3367104738    2.4757772607   -1.2321925214
H       -0.0794921844    0.7739408471   -0.3879480219
H       -0.9320006150   -0.7070681853    0.0533773566
H       -0.8040212349    0.6292959919   -4.0476887785
H       -0.0191196462    1.5577147851   -2.7623458121
H       -3.1378993224    0.3742706867   -0.4838380575
H       -2.2370439742    1.2556265345    0.7708744764
H       -2.1097748188    2.6841403078   -3.5603210721
H       -3.0706455834    1.2523265851   -3.1247099257
H       -1.8334594678   -0.8680265381   -2.3043382936
H        1.2276950212   -1.3215148978   -0.5013337175
H        0.0223816243   -2.5911774527   -0.8390705219
H        1.5815946708   -2.6061118077   -1.6569031398
H        2.2769816303   -2.0777968509   -3.6539967567
H        1.4001666908   -2.6665926386   -4.9803263183
27   
torsion grid (45,)
C        0.3361499392   -1.6504559955   -3.6628196242
C       -0.8781731072    0.2188972000   -0.6219310718
C       -0.9589344154    0.9042054378   -3.0412484051
C       -2.1339930825    1.0057372802   -0.2377243272
C       -2.2238203145    1.7512117576   -2.9002296273
C       -0.9200916599   -0.3000934824   -2.0732593529
C        0.6281043078   -2.1045259107   -1.3006335207
N        1.5388755047   -2.2727017688   -3.9743148843
N        0.2781833766   -1.1284501096   -2.3528466827
O       -0.5833826839   -1.5857215725   -4.4747629200
O       -1.1290732225    3.3324645532   -1.0523949305
O       -3.6733793926    3.0523312024   -1.0422496480
S       -2.3272323147    2.4938585837   -1.2535094796
H        0.0065840775    0.8478195549   -0.4808770879
H       -0.8068750621   -0.6096052147    0.0868614772
H       -0.9194822880    0.5516566917   -4.0701257291
H       -0.0797846996    1.5308626555   -2.8612614310
H       -3.0509812587    0.4221523631   -0.3606507824
H       -2.0835113010    1.3687638770    0.7923607735
H       -2.2256188339    2.5940017114   -3.5966700242
H       -3.1415124419    1.1737565327   -3.0443602929
H       -1.8280807263   -0.9065688823   -2.2162204969
H        1.0940002151   -1.6093521328   -0.4457870089
H       -0.2604431101   -2.6519217275   -0.9549577482
H        1.3322460077   -2.8330409892   -1.6968758093
H        2.3768315851   -1.8896045147   -3.5530351806
H        1.6208191012   -2.4821616719   -4.9622412090
27   
torsion grid (60,)
C        0.9164022628   -1.1341514766   -3.4889491603
C       -0.5682084408    0.3719109602   -0.8444539237
C       -1.4310915515    0.7005724052   -3.2309931204
C       -1.6820869922    1.1946527808   -0.1929667371
C       -2.6495520964    1.5188932064   -2.7914803831
C       -1.0344618538   -0.3150226474   -2.1471756486
C        0.0691639714   -2.4633550250   -1.6087354633
N        1.8967570726   -2.1275642716   -3.5746166138
N       -0.1046661461   -1.3808494152   -2.5769486974
O        0.9480121814   -0.1686340682   -4.2497149787
O       -1.1473436726    3.3865890948   -1.6088194997
O       -3.5392549840    3.0423670797   -0.7635220542
S       -2.2836177062    2.4966947081   -1.3069512505
H        0.2911155432    1.0169608676   -1.0557930013
H       -0.2442917374   -0.3774402575   -0.1162969242
H       -1.6792135713    0.1712784422   -4.1541532114
H       -0.6054380338    1.3698067925   -3.4636543741
H       -2.5530364014    0.5875547767    0.0721554163
H       -1.3376328632    1.7240563075    0.6994759900
H       -2.9328617435    2.2557056734   -3.5481423740
H       -3.5246795076    0.9075664730   -2.5501828828
H       -1.9575794761   -0.8602003634   -1.8952431904
H        0.8692603737   -2.2742612762   -0.8785839956
H       -0.8622703318   -2.5980143893   -1.0536836390
H        0.2727718659   -3.4032390839   -2.1278415910
H        2.1987354895   -2.6005307978   -2.7326747636
H        2.6624925497   -1.8178310673   -4.1618189520
27   
torsion grid (75,)
C        1.0250747472   -1.0184097440   -3.3054579011
C       -0.4799394895    0.4392165491   -0.9041687465
C       -1.5281251830    0.6248714864   -3.2332417895
C       -1.5555736608    1.2826655757   -0.2151739235
C       -2.7267554008    1.4483504687   -2.7539838631
C       -1.0328251451   -0.3214973224   -2.1265490609
C       -0.0751003596   -2.5816716646   -1.7616555515
N        1.9749292229   -2.0250674655   -3.4833153237
N       -0.1143247226   -1.3784935225   -2.5930164364
O        1.1814743259    0.0851041209   -3.8262262320
O       -1.1907295475    3.4091017191   -1.7829500163
O       -3.5010180390    3.0497912759   -0.7407373361
S       -2.2735469098    2.5080101347   -1.3493801526
H        0.3505672766    1.0782768679   -1.2182464108
H       -0.0913992584   -0.2737793134   -0.1686724692
H       -1.8333281441    0.0306983496   -4.1005382831
H       -0.7283117255    1.2866347637   -3.5593540154
H       -2.3910800271    0.6798512461    0.1538207563
H       -1.1539214325    1.8714330858    0.6139960528
H       -3.0768251409    2.1422487914   -3.5231918777
H       -3.5716407535    0.8385132937   -2.4188856027
H       -1.9187546789   -0.8744580150   -1.7849578615
H        0.6336513522   -2.5094890523   -0.9232164550
H       -1.0680760107   -2.7587465493   -1.3435364257
H        0.1756643312   -3.4555003516   -2.3688057692
H        2.1307777207   -2.7033296687   -2.7495887732
H        2.8265608526   -1.6508096311   -3.8847315565
27   
torsion grid (90,)
C        1.0786454619   -0.9648174909   -3.1854127200
C       -0.4273299887    0.4986530740   -0.9252760731
C       -1.5919294546    0.5533866632   -3.2062162554
C       -1.4817771521    1.3613883378   -0.2280316332
C       -2.7673619519    1.4009519042   -2.7139370334
C       -1.0253255655   -0.3298598842   -2.0801150059
C       -0.1755845127   -2.6719932071   -1.9171826022
N        2.0368550190   -1.9605034133   -3.3879801336
N       -0.0949172711   -1.3657190710   -2.5652072589
O        1.2610004181    0.1783383535   -3.6045950919
O       -1.1968749958    3.4112330765   -1.9119703387
O       -3.4564043956    3.0975643768   -0.7516368598
S       -2.2541237082    2.5297442758   -1.3861238902
H        0.3763066772    1.1315075770   -1.3098938027
H        0.0064260069   -0.1772336810   -0.1791835686
H       -1.9410124116   -0.0909384042   -4.0199833252
H       -0.8090490459    1.1954045633   -3.6079634396
H       -2.2972876470    0.7716470595    0.2020083357
H       -1.0508605228    1.9894939490    0.5564322735
H       -3.1583249142    2.0539666039   -3.4990331922
H       -3.5923368857    0.8071721074   -2.3075960020
H       -1.8728419885   -0.8930523687   -1.6691152276
H        0.3972141899   -2.7272110315   -0.9783837290
H       -1.2192313527   -2.8938841573   -1.6852234082
H        0.1738580864   -3.4538023592   -2.5957448243
H        2.1630009490   -2.6718222032   -2.6792342850
H        2.9066911562   -1.5560992217   -3.7151659326
27   
torsion grid (105,)
C        1.1304565507   -0.9428626099   -3.0901323887
C       -0.3837452300    0.5750537460   -0.9193674954
C       -1.6105755132    0.4964798271   -3.1632279583
C       -1.4429921944    1.4388760104   -0.2308593384
C       -2.7891775469    1.3472466767   -2.6843580150
C       -0.9930032448   -0.3230160131   -2.0144437672
C       -0.2502161108   -2.7224255582   -2.0556354136
N        2.0654433676   -1.9516024633   -3.3421760181
N       -0.0484981390   -1.3460184718   -2.4945121232
O        1.3408264611    0.2190059577   -3.4415904170
O       -1.2547141161    3.4261290710   -2.0029346134
O       -3.4762230946    3.1013573120   -0.7733579007
S       -2.2739400582    2.5398309842   -1.4142881377
H        0.3893362060    1.2101246376   -1.3565705173
H        0.0911692625   -0.0555293297   -0.1588826475
H       -1.9697841439   -0.1908460529   -3.9367887452
H       -0.8463266435    1.1302674292   -3.6139770850
H       -2.2324491326    0.8491094584    0.2453669961
H       -1.0074880030    2.1099229858    0.5146093665
H       -3.2061749809    1.9601969434   -3.4881542613
H       -3.5956844903    0.7565165287   -2.2385430294
H       -1.8082232089   -0.8905436298   -1.5494592571
H        0.2284448878   -2.9409192340   -1.0884879813
H       -1.3199939564   -2.9155763205   -1.9505384745
H        0.1298687657   -3.4189510744   -2.8065344564
H        2.1742189392   -2.6892640364   -2.6568465812
H        2.9468695671   -1.5490473458   -3.6400747637
27   
torsion grid (120,)
C        1.1765296690   -0.9322272247   -3.0100703690
C       -0.3477501406    0.6423844979   -0.9030458520
C       -1.6190299798    0.4345257662   -3.1129513381
C       -1.4166294259    1.5081186054   -0.2323535854
C       -2.8041017506    1.2862094184   -2.6517213380
C       -0.9563114148   -0.3183102798   -1.9423774768
C       -0.3209607271   -2.7379681618   -2.1890336825
N        2.0876476695   -1.9526503798   -3.3094122315
N        0.0042491668   -1.3324744989   -2.4063421270
O        1.4075477583    0.2378206076   -3.3202337047
O       -1.2992968351    3.4215168803   -2.0914698253
O       -3.4899305877    3.1084890449   -0.8053489564
S       -2.2890707305    2.5424791696   -1.4446447248
H        0.3993111092    1.2770017321   -1.3823573518
H        0.1589941314    0.0576106733   -0.1270619849
H       -1.9824344587   -0.2940115328   -3.8462297326
H       -0.8739999734    1.0593963007   -3.6079974818
H       -2.1862102441    0.9223266040    0.2800759913
H       -0.9839500719    2.2175054335    0.4784370818
H       -3.2477101723    1.8540777383   -3.4741784200
H       -3.5903616930    0.7001934100   -2.1653243535
H       -1.7409188245   -0.8876396557   -1.4294315222
H        0.0301524429   -3.1098122498   -1.2150094875
H       -1.4050687332   -2.8715749610   -2.2283836510
H        0.1090401058   -3.3539858952   -2.9813807985
H        2.1937291823   -2.7011126420   -2.6343484564
H        2.9739587282   -1.5543729720   -3.5995696455
27   
torsion grid (135,)
C        1.2212524216   -0.9320204990   -2.9386683458
C       -0.3045703317    0.7056449368   -0.8941554244
C       -1.6213767964    0.3679136034   -3.0591336666
C       -1.3833169063    1.5677376953   -0.2342478862
C       -2.8165377558    1.2120294546   -2.6115623475
C       -0.9134586299   -0.3155732001   -1.8725395137
C       -0.4045944560   -2.7157483862   -2.3224422804
N        2.1112362619   -1.9605853833   -3.2742526752
N        0.0559467352   -1.3293381494   -2.3168744038
O        1.4689286098    0.2413746329   -3.2194616550
O       -1.3563658035    3.4059015503   -2.1723959088
O       -3.5110059677    3.0902294698   -0.8281476624
S       -2.3082539147    2.5291787315   -1.4680242773
H        0.4113617110    1.3407417158   -1.4166318843
H        0.2375632821    0.1680120956   -0.1083268051
H       -1.9839844109   -0.3984893597   -3.7538292940
H       -0.9009541866    0.9871578519   -3.5971835136
H       -2.1256872056    0.9835596010    0.3185960134
H       -0.9549442496    2.3168821271    0.4372849233
H       -3.2895474705    1.7348797407   -3.4473299842
H       -3.5788217624    0.6290328361   -2.0851624985
H       -1.6685232208   -0.8797413968   -1.3102665585
H       -0.2855338217   -3.1952806214   -1.3412342487
H       -1.4657246631   -2.7519984715   -2.5905066648
H        0.1370808421   -3.2944366136   -3.0712174695
H        2.2181002353   -2.7145636341   -2.6049378046
H        2.9991556547   -1.5689848991   -3.5691131881
27   
torsion grid (150,)
C        1.2618403677   -0.9430077397   -2.8625978665
C       -0.2639119039    0.7655053112   -0.9026984818
C       -1.6216399688    0.3054731343   -3.0055909007
C       -1.3479460391    1.6209688061   -0.2420371444
C       -2.8302650753    1.1351215669   -2.5669613912
C       -0.8772873908   -0.3189049052   -1.8065717768
C       -0.4782433285   -2.6696480361   -2.4609085144
N        2.1338078431   -1.9787442397   -3.2187963738
N        0.0958436563   -1.3415453989   -2.2286043668
O        1.5294008626    0.2300333159   -3.1202914419
O       -1.4286504812    3.3844521440   -2.2455889493
O       -3.5387628028    3.0559932868   -0.8343758700
S       -2.3352206392    2.5073646827   -1.4836739570
H        0.4098886252    1.3985151165   -1.4787313415
H        0.3252628386    0.2840161488   -0.1143602451
H       -1.9802492537   -0.4856961445   -3.6735932756
H       -0.9239799355    0.9247705652   -3.5737505664
H       -2.0556629476    1.0393000927    0.3567541828
H       -0.9204880529    2.4084753714    0.3847027080
H       -3.3327721554    1.6141886913   -3.4117090961
H       -3.5658174460    0.5512609725   -2.0048415311
H       -1.6085518842   -0.8684007446   -1.1987243693
H       -0.5880515003   -3.2263226003   -1.5219710102
H       -1.4693294565   -2.5803373358   -2.9209120490
H        0.1453190385   -3.2433292081   -3.1450598312
H        2.2240587330   -2.7460598505   -2.5621951457
H        3.0288324966   -1.5999275745   -3.5086764193
27   
torsion grid (165,)
C        1.3096843793   -0.9386333577   -2.7856828454
C       -0.2190282256    0.8394934691   -0.9228134620
C       -1.6539543860    0.2354358183   -2.9257831671
C       -1.3034450074    1.6745603988   -0.2367716600
C       -2.8686309758    1.0492923825   -2.4723348602
C       -0.8394203346   -0.3123956228   -1.7336116569
C       -0.4704902120   -2.6011881489   -2.6119904439
N        2.0964306757   -1.9791175249   -3.2781686133
N        0.1354604938   -1.3425854344   -2.1501775425
O        1.6441297048    0.2331300551   -2.9469380742
O       -1.5456938550    3.3589975786   -2.2957393371
O       -3.5747019686    3.0024714210   -0.7760826952
S       -2.3801989173    2.4770098575   -1.4602323490
H        0.3888659246    1.4747511962   -1.5631622326
H        0.4395121517    0.4246139595   -0.1519696666
H       -2.0216302125   -0.5924899207   -3.5414914356
H       -1.0023417141    0.8491611749   -3.5535468036
H       -1.9590565380    1.0905701457    0.4165880319
H       -0.8766958315    2.5003864722    0.3391087102
H       -3.4168480951    1.4796080527   -3.3148589074
H       -3.5639133344    0.4646280363   -1.8620953416
H       -1.5290758264   -0.8414795063   -1.0625011379
H       -1.4549612891   -2.7062045307   -2.1517783886
H       -0.5836179970   -2.6403025080   -3.7011033471
H        0.1171718559   -3.4681943300   -2.2943946087
H        2.1009728335   -2.8582423256   -2.7754484388
H        3.0189009013   -1.6497613799   -3.5387847505
27   
torsion grid (180,)
C        1.3865134841   -0.9934476741   -2.6506635683
C       -0.1871009202    0.8980388472   -1.0178996365
C       -1.7199490075    0.1869944062   -2.8815529369
C       -1.2439195768    1.7272071727   -0.2813439457
C       -2.9275764262    0.9842143232   -2.3817408817
C       -0.8282198239   -0.3144056821   -1.7190817081
C       -0.5075772870   -2.5069278264   -2.8211717135
N        2.1628787986   -2.0635649638   -3.0983522260
N        0.1305940456   -1.3587930633   -2.1537000636
O        1.8071666402    0.1572864954   -2.7344542818
O       -1.6728822596    3.3344023126   -2.3707184256
O       -3.5869694429    2.9743993433   -0.7094220069
S       -2.4230863428    2.4593692713   -1.4513790739
H        0.3407194497    1.5237059658   -1.7324948179
H        0.5508338417    0.5552776660   -0.2854986223
H       -2.1090401780   -0.6524210003   -3.4643790998
H       -1.1182696899    0.8021863188   -3.5572461895
H       -1.8348406032    1.1501464230    0.4364614872
H       -0.7979046126    2.5820942063    0.2343704753
H       -3.5372437954    1.3680741988   -3.2042510083
H       -3.5670708940    0.4006171002   -1.7124375230
H       -1.4747253774   -0.8204572206   -0.9882697823
H       -1.5108147179   -2.6383648442   -2.4092513009
H       -0.5808741108   -2.3779956421   -3.9064251572
H        0.0331812187   -3.4350002995   -2.6212506436
H        2.0833573714   -2.9464773820   -2.6083526941
H        3.1202444161   -1.7726430238   -3.2612596791
