20   
torsion grid (-165,)
C        1.7833950571   -0.6978348623    1.1230730434
C        0.2970977819   -0.8741219209    1.5214317210
C        1.7785299183    0.1174167818   -0.1938760730
C       -0.4319618168    0.3247933137    0.9131366432
C        0.4872380331    0.9380786596   -0.1577951144
C       -0.7876709649    0.2453196651   -0.5539961248
C       -1.9352429658    1.0741621305   -1.0845050895
O       -0.6319368952   -1.0062545176   -1.2111600407
H        2.2969123427   -0.1201412930    1.9008654975
H        2.3092151361   -1.6534395378    1.0246400231
H       -0.1035097189   -1.8090313911    1.1162455885
H        0.1674030728   -0.9010131086    2.6075414611
H        2.6528870690    0.7708942111   -0.2696410942
H        1.7865256748   -0.5457785954   -1.0643006485
H       -1.0402838879    0.9577908970    1.5553689245
H        0.5418661660    2.0154260082   -0.2953532434
H       -1.8069184923    1.2748825762   -2.1548737073
H       -1.9970019734    2.0346345536   -0.5652384629
H       -2.8950025820    0.5601922661   -0.9379473919
H       -1.4792896249   -1.2338156147   -1.6214048428
20   
torsion grid (-150,)
C        1.7800751210   -0.6940508219    1.1261913365
C        0.2948515410   -0.8644328449    1.5308538747
C        1.7711455043    0.1104176194   -0.1974373562
C       -0.4327567679    0.3322882887    0.9153962775
C        0.4841607776    0.9370790068   -0.1607061129
C       -0.7962044237    0.2414851994   -0.5469069706
C       -1.9491112929    1.0639609062   -1.0742024432
O       -0.6624359285   -1.0323709688   -1.1687887209
H        2.2973038069   -0.1104036703    1.8970674921
H        2.3041091157   -1.6513010692    1.0340657170
H       -0.1104909739   -1.8009248301    1.1346062543
H        0.1686001563   -0.8824575891    2.6175335333
H        2.6485374229    0.7582805790   -0.2849341833
H        1.7685265428   -0.5611348365   -1.0617380920
H       -1.0385887110    0.9699557762    1.5553557797
H        0.5423154057    2.0137791982   -0.3036386080
H       -1.8332267649    1.2584673509   -2.1479753850
H       -2.0039222090    2.0300843916   -0.5649897232
H       -2.9057655067    0.5501225370   -0.9121218665
H       -1.4130795332   -1.1538958062   -1.7673898490
20   
torsion grid (-135,)
C        1.7819902504   -0.7007408443    1.1275022408
C        0.2977729432   -0.8610476030    1.5406217981
C        1.7710592273    0.0985363527   -0.1991584469
C       -0.4271267458    0.3345806156    0.9186504528
C        0.4889153237    0.9318837302   -0.1594456604
C       -0.7992691323    0.2375586251   -0.5388130040
C       -1.9588298546    1.0552350703   -1.0581592242
O       -0.6931987778   -1.0557250884   -1.1238488331
H        2.3067221187   -0.1171607553    1.8933327181
H        2.2999808403   -1.6613529384    1.0364268740
H       -0.1148210406   -1.7992509050    1.1568179545
H        0.1769095773   -0.8677981950    2.6280788022
H        2.6518917449    0.7406288042   -0.2943575065
H        1.7592953533   -0.5778190902   -1.0598626139
H       -1.0309885833    0.9763629745    1.5562439243
H        0.5521899583    2.0081847155   -0.3038992542
H       -1.8630461971    1.2350783003   -2.1372952976
H       -1.9995275457    2.0306201835   -0.5655253352
H       -2.9117286724    0.5445834434   -0.8716300783
H       -1.2907049113   -1.0898714068   -1.8846627686
20   
torsion grid (-120,)
C        1.7800575523   -0.7065757268    1.1262537371
C        0.2975895780   -0.8571186316    1.5494492571
C        1.7655315691    0.0874468569   -0.2034760037
C       -0.4252236869    0.3371730177    0.9215259964
C        0.4879062992    0.9271135892   -0.1603189404
C       -0.8083945129    0.2356517879   -0.5309848961
C       -1.9719020399    1.0524294733   -1.0433640644
O       -0.7291874743   -1.0700490424   -1.0867008310
H        2.3129072478   -0.1230504923    1.8864863504
H        2.2920886226   -1.6703719385    1.0356777972
H       -0.1216652016   -1.7975594800    1.1794451593
H        0.1840347262   -0.8515824325    2.6377435254
H        2.6492565112    0.7241879245   -0.3073120027
H        1.7453718012   -0.5942700719   -1.0599607022
H       -1.0257934178    0.9837217392    1.5570859140
H        0.5556977576    2.0028627380   -0.3069719693
H       -1.8932934955    1.2173160333   -2.1267396622
H       -1.9998239855    2.0358004950   -0.5655323785
H       -2.9219061154    0.5457287734   -0.8369295579
H       -1.1307720056   -1.0419387626   -1.9682012497
20   
torsion grid (-105,)
C        1.7774218424   -0.7149324193    1.1229445274
C        0.2975457516   -0.8555349100    1.5584201814
C        1.7577370005    0.0742937022   -0.2095669234
C       -0.4245479541    0.3378512641    0.9274854897
C        0.4834669893    0.9186852620   -0.1626111774
C       -0.8213193964    0.2312207384   -0.5192496242
C       -1.9833626424    1.0538676817   -1.0273671432
O       -0.7654466704   -1.0797962643   -1.0580615487
H        2.3198134337   -0.1316380330    1.8765541968
H        2.2832873101   -1.6819354766    1.0321521064
H       -0.1285153266   -1.7971337834    1.2001661566
H        0.1927242341   -0.8400639327    2.6475021458
H        2.6429305204    0.7077947236   -0.3207933002
H        1.7333261986   -0.6116762450   -1.0628584025
H       -1.0187969013    0.9902189294    1.5627854807
H        0.5538418802    1.9934472837   -0.3143227276
H       -1.9137982869    1.2084033555   -2.1128481836
H       -1.9999250954    2.0417909663   -0.5578433437
H       -2.9334696059    0.5530033884   -0.8104866309
H       -0.9468852691   -1.0148805719   -2.0089632728
20   
torsion grid (-90,)
C        1.7751177995   -0.7251310611    1.1191406958
C        0.2981436636   -0.8562067905    1.5669287319
C        1.7497450699    0.0594220075   -0.2160530167
C       -0.4240537872    0.3359679436    0.9341878048
C        0.4774346866    0.9067944173   -0.1664835004
C       -0.8348916594    0.2251149860   -0.5077927841
C       -1.9935662162    1.0569316177   -1.0114307280
O       -0.7979522272   -1.0859996553   -1.0430090182
H        2.3268092517   -0.1418029716    1.8658607901
H        2.2753247542   -1.6950205790    1.0280091145
H       -0.1344184412   -1.7982993597    1.2185573084
H        0.2027569366   -0.8322759047    2.6567055589
H        2.6354348787    0.6910145301   -0.3340677687
H        1.7245298605   -0.6306461315   -1.0665036662
H       -1.0101535959    0.9951135064    1.5697632696
H        0.5496364560    1.9802282835   -0.3254662260
H       -1.9277233629    1.2087592907   -2.0971107074
H       -2.0029055273    2.0450768022   -0.5414904661
H       -2.9446225289    0.5598233184   -0.7918918411
H       -0.7497959474   -1.0071723226   -2.0094464328
20   
torsion grid (-75,)
C        1.7732067977   -0.7350286964    1.1099626304
C        0.2986169491   -0.8581704612    1.5672543399
C        1.7438866178    0.0475326021   -0.2263726603
C       -0.4223504928    0.3352607670    0.9367156420
C        0.4727848329    0.8968279202   -0.1742219286
C       -0.8456307288    0.2216024928   -0.5020161428
C       -2.0000894102    1.0642087728   -0.9997323186
O       -0.8241694073   -1.0863037893   -1.0440809937
H        2.3325382300   -0.1524909542    1.8514951740
H        2.2687314390   -1.7071841670    1.0176638111
H       -0.1405130228   -1.7984364166    1.2223530965
H        0.2105668196   -0.8317597082    2.6575506549
H        2.6294433226    0.6785231591   -0.3483786573
H        1.7220774151   -0.6442881824   -1.0763290900
H       -0.9990008051    1.0007295795    1.5741366441
H        0.5465979099    1.9688994672   -0.3403548174
H       -1.9350653739    1.2180467847   -2.0845336838
H       -2.0042413875    2.0498430326   -0.5238322459
H       -2.9525318232    0.5697043746   -0.7814139207
H       -0.5507424629   -1.0160599491   -1.9728666453
20   
torsion grid (-60,)
C        1.7711139706   -0.7426027146    1.0997027997
C        0.2981197342   -0.8599537990    1.5633360208
C        1.7396906447    0.0417175849   -0.2357111299
C       -0.4213119508    0.3362575517    0.9378728467
C        0.4679269914    0.8902704144   -0.1820425116
C       -0.8548898377    0.2213599550   -0.4992138954
C       -2.0059470738    1.0730251879   -0.9905667735
O       -0.8501857169   -1.0810566269   -1.0553866743
H        2.3359842215   -0.1619922094    1.8383723042
H        2.2632479618   -1.7162598208    1.0049443278
H       -0.1468297953   -1.7970262282    1.2168678572
H        0.2154959413   -0.8360954529    2.6540153965
H        2.6239459017    0.6744302539   -0.3573013471
H        1.7271306342   -0.6488840759   -1.0880707121
H       -0.9884653102    1.0068181866    1.5783364167
H        0.5427556494    1.9610183728   -0.3551659319
H       -1.9399416308    1.2318473718   -2.0739128485
H       -2.0076033403    2.0543877546   -0.5055610480
H       -2.9594998911    0.5792118423   -0.7759668192
H       -0.3702722002   -1.0443095189   -1.8977770182
20   
torsion grid (-45,)
C        1.7665354606   -0.7486542476    1.0855929985
C        0.2945747390   -0.8608915857    1.5537456628
C        1.7350378329    0.0433005285   -0.2455118093
C       -0.4221322972    0.3406355935    0.9369784790
C        0.4621639552    0.8900035820   -0.1893725526
C       -0.8633795441    0.2263630081   -0.5001849991
C       -2.0124789780    1.0845053753   -0.9843105441
O       -0.8757363347   -1.0688514244   -1.0739715367
H        2.3365711266   -0.1735205624    1.8243614168
H        2.2547428458   -1.7237234791    0.9849630937
H       -0.1570008088   -1.7931739133    1.2019336879
H        0.2162485477   -0.8443645665    2.6447505725
H        2.6176662721    0.6789697000   -0.3620810662
H        1.7351467534   -0.6411023821   -1.1046346202
H       -0.9801684995    1.0142510521    1.5821703161
H        0.5381412506    1.9597748276   -0.3673317477
H       -1.9442468049    1.2516882627   -2.0656405334
H       -2.0148625985    2.0598844982   -0.4873026932
H       -2.9662064185    0.5885028076   -0.7756956211
H       -0.2198257539   -1.0913616757   -1.7876637657
20   
torsion grid (-30,)
C        1.7598789140   -0.7518785349    1.0679311588
C        0.2884236678   -0.8608613009    1.5387461877
C        1.7295810210    0.0511870894   -0.2569424340
C       -0.4253023491    0.3469320509    0.9321931930
C        0.4554172474    0.8955936566   -0.1982999733
C       -0.8710387439    0.2354980778   -0.5062587364
C       -2.0195754878    1.0970158548   -0.9834678188
O       -0.9006355671   -1.0506093524   -1.1000926287
H        2.3337659688   -0.1838841859    1.8089715306
H        2.2446665761   -1.7279415824    0.9599710595
H       -0.1692775031   -1.7882411615    1.1802323262
H        0.2128379794   -0.8545479363    2.6298974837
H        2.6104367801    0.6904509246   -0.3654258630
H        1.7429954569   -0.6232697768   -1.1256146763
H       -0.9755231385    1.0212917601    1.5832691685
H        0.5326588212    1.9648650255   -0.3784810988
H       -1.9475610683    1.2749152052   -2.0622994090
H       -2.0253563467    2.0652955257   -0.4730257143
H       -2.9727178223    0.5964663479   -0.7830302872
H       -0.1107973887   -1.1547504485   -1.6521069743
20   
torsion grid (-15,)
C        1.7556938684   -0.7510896005    1.0515427734
C        0.2842416015   -0.8616998563    1.5226954756
C        1.7252928705    0.0625309501   -0.2673547576
C       -0.4288365173    0.3509828760    0.9257708814
C        0.4503429777    0.9053569973   -0.2048292739
C       -0.8753868873    0.2469790431   -0.5147121836
C       -2.0243032152    1.1094273623   -0.9857502977
O       -0.9182662860   -1.0268625409   -1.1331689932
H        2.3298103639   -0.1884060210    1.7961839580
H        2.2407147866   -1.7264537054    0.9372813218
H       -0.1764671693   -1.7865697024    1.1595401955
H        0.2100982808   -0.8650170513    2.6137939174
H        2.6052311951    0.7038131519   -0.3696364891
H        1.7457599157   -0.6018479108   -1.1449491235
H       -0.9750170546    1.0223403618    1.5833832326
H        0.5290253794    1.9752590608   -0.3806346807
H       -1.9481199641    1.2983932370   -2.0619991962
H       -2.0340762399    2.0707663026   -0.4628841178
H       -2.9766312360    0.6039412141   -0.7937171268
H       -0.0440270359   -1.2268565745   -1.5007302873
20   
torsion grid (0,)
C        1.7560613714   -0.7488789733    1.0344757129
C        0.2840562995   -0.8670801227    1.5029085289
C        1.7238362097    0.0731057629   -0.2792963875
C       -0.4319676377    0.3488601345    0.9157722262
C        0.4488188521    0.9154310603   -0.2101733658
C       -0.8758041012    0.2594283498   -0.5271949342
C       -2.0254202766    1.1239801061   -0.9894998517
O       -0.9295250180   -0.9981752728   -1.1760120745
H        2.3258071224   -0.1881584561    1.7837196386
H        2.2460517875   -1.7214377669    0.9160485466
H       -0.1753594374   -1.7923925355    1.1367321656
H        0.2090619613   -0.8804435830    2.5937441919
H        2.6042594670    0.7141529412   -0.3782268556
H        1.7427181469   -0.5822878224   -1.1639734623
H       -0.9778580112    1.0128880768    1.5811482739
H        0.5294037199    1.9871760257   -0.3734358439
H       -1.9465494031    1.3256037091   -2.0629803119
H       -2.0369736227    2.0780636457   -0.4541396284
H       -2.9769453820    0.6142777490   -0.8048622391
H       -0.0266540687   -1.3051996466   -1.3495431517
20   
torsion grid (15,)
C        1.7617963294   -0.7446429044    1.0221268706
C        0.2892323935   -0.8759492015    1.4861951917
C        1.7257548475    0.0841229837   -0.2875389047
C       -0.4331113484    0.3405129302    0.9067240473
C        0.4506439896    0.9258007482   -0.2097612426
C       -0.8707124956    0.2701210421   -0.5391459359
C       -2.0203435833    1.1369326338   -0.9943686842
O       -0.9273679911   -0.9697566574   -1.2201478457
H        2.3236781684   -0.1832552694    1.7766597637
H        2.2604445027   -1.7126729677    0.9011913249
H       -0.1641135855   -1.8052911454    1.1199259948
H        0.2121808948   -0.8971983230    2.5766536307
H        2.6069946887    0.7240617051   -0.3852459838
H        1.7357888994   -0.5646158436   -1.1764370514
H       -0.9843314413    0.9930934041    1.5791144659
H        0.5315712615    2.0001925839   -0.3548253269
H       -1.9389747923    1.3483604406   -2.0656329767
H       -2.0311298341    2.0858481018   -0.4504463101
H       -2.9721735159    0.6257915920   -0.8155027757
H       -0.0531006418   -1.3876049475   -1.2007680110
20   
torsion grid (30,)
C        1.7688758950   -0.7363326261    1.0155919765
C        0.2957117239   -0.8825648374    1.4749345441
C        1.7286789167    0.0999921775   -0.2889331967
C       -0.4355031871    0.3320478888    0.9011740949
C        0.4530310074    0.9396217615   -0.2005475847
C       -0.8628505098    0.2821238872   -0.5482619817
C       -2.0129360125    1.1497948521   -0.9989853373
O       -0.9116893700   -0.9412577446   -1.2586800801
H        2.3221014108   -0.1750768462    1.7765374973
H        2.2766551057   -1.6992541661    0.8909695845
H       -0.1486150698   -1.8186758363    1.1116676447
H        0.2159484883   -0.9088235632    2.5650491713
H        2.6107530323    0.7387882253   -0.3858218344
H        1.7261934031   -0.5429358501   -1.1806525882
H       -0.9977749238    0.9699882941    1.5785617826
H        0.5323465908    2.0169375183   -0.3234666082
H       -1.9317742992    1.3635626594   -2.0697951672
H       -2.0202015151    2.0980580510   -0.4541507305
H       -2.9653534483    0.6399126330   -0.8201158040
H       -0.1222512284   -1.4654332413   -1.0561021113
20   
torsion grid (45,)
C        1.7666408251   -0.7169216017    1.0048603156
C        0.2928510819   -0.8770352214    1.4587413563
C        1.7262184914    0.1324213158   -0.2910570124
C       -0.4501682804    0.3297613299    0.8829801410
C        0.4451035518    0.9624031103   -0.1990011384
C       -0.8590644744    0.2942408970   -0.5717716213
C       -2.0145381600    1.1538841643   -1.0245439880
O       -0.8799235129   -0.9177521586   -1.3029091030
H        2.3134785951   -0.1618874958    1.7748833952
H        2.2795851176   -1.6759718134    0.8720722958
H       -0.1391686322   -1.8236357455    1.1037633458
H        0.2080628589   -0.9026560187    2.5485506324
H        2.6055060973    0.7766503468   -0.3763254795
H        1.7208640753   -0.5011999293   -1.1877004613
H       -1.0326377164    0.9502789566    1.5594789274
H        0.5151320381    2.0423290125   -0.3027173528
H       -1.9419845671    1.3502112696   -2.0993677329
H       -2.0153294757    2.1118151662   -0.4968707781
H       -2.9655564566    0.6474180645   -0.8296841693
H       -0.2261514959   -1.5302573279   -0.9334928575
20   
torsion grid (60,)
C        1.7721990485   -0.7125613190    0.9938171069
C        0.2990548327   -0.8828486193    1.4462689140
C        1.7290536218    0.1494085711   -0.2932610354
C       -0.4526133649    0.3194428823    0.8721440311
C        0.4451120239    0.9729959734   -0.1927614194
C       -0.8496323034    0.2971516998   -0.5863971692
C       -2.0090283457    1.1515655267   -1.0402228420
O       -0.8377413263   -0.9067262645   -1.3315769345
H        2.3163723055   -0.1649476482    1.7710767642
H        2.2875450382   -1.6687216306    0.8508866492
H       -0.1232276079   -1.8373260838    1.0969992545
H        0.2117039897   -0.9090541151    2.5359333332
H        2.6067698784    0.7966036191   -0.3724247185
H        1.7155259949   -0.4771032523   -1.1934038857
H       -1.0509106183    0.9247443676    1.5485732149
H        0.5069774384    2.0548628287   -0.2796223660
H       -1.9348492315    1.3478376664   -2.1150361145
H       -2.0147825975    2.1107421007   -0.5144443935
H       -2.9585600247    0.6412038042   -0.8481890678
H       -0.3651202685   -1.5892869664   -0.8315061529
20   
torsion grid (75,)
C        1.7837722335   -0.7049044952    0.9880624794
C        0.3115050389   -0.8844511002    1.4391179201
C        1.7381175278    0.1671001453   -0.2917662315
C       -0.4470394778    0.3137548252    0.8657818552
C        0.4502074342    0.9830454349   -0.1859831885
C       -0.8355744938    0.2991733631   -0.5958354945
C       -2.0002873542    1.1470906137   -1.0507061019
O       -0.7854596921   -0.9004785338   -1.3471368453
H        2.3257674182   -0.1633316521    1.7712186631
H        2.3011798712   -1.6583941023    0.8363596605
H       -0.1005802098   -1.8446941938    1.0917013069
H        0.2216459912   -0.9110280678    2.5286501878
H        2.6130365642    0.8188877848   -0.3654696472
H        1.7202948764   -0.4547154102   -1.1939172722
H       -1.0587063882    0.9074245033    1.5405118615
H        0.5026674700    2.0661401243   -0.2623230867
H       -1.9224773012    1.3479807189   -2.1244479174
H       -2.0166595626    2.1050182130   -0.5222516729
H       -2.9474592151    0.6292308205   -0.8663024492
H       -0.5268274895   -1.6296750465   -0.7633108794
20   
torsion grid (90,)
C        1.8006082287   -0.6965517134    0.9875284337
C        0.3287519297   -0.8868690696    1.4346722335
C        1.7532669136    0.1807144938   -0.2884026436
C       -0.4352808110    0.3079528099    0.8616785199
C        0.4592485486    0.9868375241   -0.1827325534
C       -0.8192105987    0.2965716951   -0.6020341758
C       -1.9895708066    1.1384023812   -1.0572982370
O       -0.7319161819   -0.9017298262   -1.3529802053
H        2.3382372305   -0.1568001131    1.7751693414
H        2.3223093510   -1.6467675286    0.8312480256
H       -0.0721854232   -1.8492507906    1.0817210724
H        0.2356194129   -0.9158332773    2.5239818923
H        2.6234866235    0.8396075915   -0.3565818249
H        1.7381009857   -0.4394270255   -1.1907426641
H       -1.0558929911    0.8948144802    1.5341790179
H        0.5018451603    2.0705131019   -0.2558723794
H       -1.9074092923    1.3469137654   -2.1292495180
H       -2.0189031788    2.0930373605   -0.5228614703
H       -2.9344480598    0.6123120567   -0.8826636560
H       -0.7048710248   -1.6530596256   -0.7413357268
20   
torsion grid (105,)
C        1.8180433160   -0.6879163669    0.9900378873
C        0.3458170586   -0.8900233468    1.4298672992
C        1.7699603696    0.1897767382   -0.2852596379
C       -0.4215590712    0.3044047084    0.8602086719
C        0.4693719785    0.9862546777   -0.1826669725
C       -0.8038457797    0.2918252189   -0.6055045412
C       -1.9793359372    1.1275429610   -1.0616374266
O       -0.6838925192   -0.9076417888   -1.3502345958
H        2.3493163227   -0.1457881046    1.7806258252
H        2.3460856112   -1.6344780070    0.8336715196
H       -0.0450130783   -1.8491880567    1.0611302526
H        0.2477527743   -0.9270237349    2.5186442035
H        2.6344509160    0.8569698957   -0.3483788055
H        1.7627370213   -0.4305793201   -1.1867219227
H       -1.0445644182    0.8899954221    1.5316831166
H        0.5036104373    2.0700490611   -0.2582264137
H       -1.8924527176    1.3460593770   -2.1311833273
H       -2.0230974268    2.0770431540   -0.5186914163
H       -2.9218079901    0.5927740827   -0.8979553851
H       -0.8901496455   -1.6540754606   -0.7672966633
20   
torsion grid (120,)
C        1.8321146990   -0.6776365439    0.9976150752
C        0.3595066349   -0.8896525365    1.4301372272
C        1.7832557248    0.1957275317   -0.2804196032
C       -0.4102751134    0.3046333977    0.8631058166
C        0.4765576071    0.9840691705   -0.1840165331
C       -0.7929743419    0.2864215311   -0.6038339975
C       -1.9724767105    1.1157767586   -1.0633057954
O       -0.6464571527   -0.9156376194   -1.3389798802
H        2.3569643675   -0.1296890786    1.7887258296
H        2.3667881190   -1.6210311008    0.8450827023
H       -0.0241461498   -1.8432179746    1.0442216331
H        0.2573677549   -0.9344192828    2.5184106723
H        2.6421888203    0.8705465880   -0.3407750370
H        1.7857967015   -0.4274451305   -1.1793519711
H       -1.0315406315    0.8929767377    1.5338777732
H        0.5043132799    2.0674966383   -0.2673097035
H       -1.8815606419    1.3409776988   -2.1311013948
H       -2.0290404943    2.0613511817   -0.5145686337
H       -2.9134010682    0.5747600331   -0.9076131497
H       -1.0699993579   -1.6298578561   -0.8380477834
20   
torsion grid (135,)
C        1.8406636098   -0.6668640622    1.0057953717
C        0.3683950658   -0.8863513756    1.4346945013
C        1.7892708504    0.1986878178   -0.2774517340
C       -0.4043455293    0.3066456734    0.8691823638
C        0.4774777669    0.9806058856   -0.1869384592
C       -0.7891675892    0.2782921679   -0.5978510829
C       -1.9718346862    1.1003040668   -1.0629631902
O       -0.6222655361   -0.9261404217   -1.3237788521
H        2.3610667662   -0.1110336822    1.7945460540
H        2.3812735726   -1.6077668242    0.8589482300
H       -0.0114965707   -1.8344897363    1.0354220035
H        0.2645278877   -0.9362880562    2.5227225881
H        2.6434245603    0.8796054404   -0.3392287706
H        1.7997898297   -0.4292530856   -1.1727057964
H       -1.0217277598    0.8997107188    1.5395291636
H        0.5000360992    2.0632944209   -0.2811245413
H       -1.8773036705    1.3293687150   -2.1296489886
H       -2.0399679190    2.0431818610   -0.5110703702
H       -2.9115668553    0.5543417622   -0.9127485235
H       -1.2308663566   -1.5840653791   -0.9516216538
20   
torsion grid (150,)
C        1.8467192809   -0.6533609521    1.0139460396
C        0.3753942705   -0.8772559306    1.4429655940
C        1.7914724022    0.2016945975   -0.2762559311
C       -0.4004829113    0.3130102729    0.8766516790
C        0.4764281068    0.9798567559   -0.1907820691
C       -0.7880078338    0.2713773934   -0.5893381774
C       -1.9722325058    1.0863787473   -1.0621243438
O       -0.6077618894   -0.9361831839   -1.3068807103
H        2.3646775804   -0.0884531297    1.7979962576
H        2.3920052547   -1.5926522795    0.8740931019
H       -0.0034286185   -1.8218354952    1.0365699741
H        0.2719289707   -0.9282995230    2.5310545998
H        2.6424846992    0.8861321427   -0.3436195232
H        1.8060857156   -0.4328212799   -1.1668028776
H       -1.0136745982    0.9115558586    1.5461432278
H        0.4954220021    2.0615554229   -0.2970246708
H       -1.8743604186    1.3162551745   -2.1284585621
H       -2.0492462847    2.0283131931   -0.5102143519
H       -2.9115643258    0.5376061889   -0.9146668544
H       -1.3586032741   -1.5158181615   -1.0999433108
20   
torsion grid (165,)
C        1.8492100493   -0.6409948639    1.0233854339
C        0.3794543456   -0.8667484344    1.4563083476
C        1.7881280552    0.2006523089   -0.2753730148
C       -0.4000560929    0.3193814078    0.8868496277
C        0.4718881844    0.9778049665   -0.1930448626
C       -0.7914213867    0.2617912742   -0.5766182601
C       -1.9763989349    1.0698952582   -1.0578635412
O       -0.6058162477   -0.9522930104   -1.2838207179
H        2.3664737296   -0.0656623774    1.8003789098
H        2.3982194938   -1.5793479971    0.8917443899
H       -0.0000808689   -1.8101698365    1.0492225747
H        0.2784697492   -0.9147125382    2.5447720796
H        2.6378279186    0.8856445165   -0.3533924897
H        1.8012682767   -0.4427510416   -1.1597593437
H       -1.0095257377    0.9235370815    1.5548958506
H        0.4888724339    2.0583514560   -0.3115563479
H       -1.8768029419    1.2970514764   -2.1248744237
H       -2.0588078872    2.0133090930   -0.5098317251
H       -2.9156854891    0.5202869121   -0.9089111685
H       -1.4483343985   -1.4339487954   -1.2652361995
20   
torsion grid (180,)
C        1.7777683741   -0.6953053212    1.1166926903
C        0.2899960544   -0.8785186797    1.5057820194
C        1.7773903193    0.1279003538   -0.1953225736
C       -0.4387659086    0.3230752235    0.9027246635
C        0.4829488189    0.9442771716   -0.1606719757
C       -0.7886687815    0.2567902638   -0.5687865009
C       -1.9331143399    1.0921223838   -1.0977085478
O       -0.6202074019   -0.9764507756   -1.2510283629
H        2.2847354724   -0.1205060495    1.9009039898
H        2.3073406263   -1.6485728431    1.0157978318
H       -0.1039392838   -1.8124965916    1.0915052362
H        0.1543244210   -0.9148217498    2.5909110353
H        2.6493715913    0.7856362097   -0.2610582949
H        1.7942514875   -0.5293651111   -1.0697488931
H       -1.0491676514    0.9518464060    1.5469454975
H        0.5352719142    2.0223951768   -0.2915227465
H       -1.7944330693    1.3038692633   -2.1639608284
H       -2.0032083330    2.0449077354   -0.5649931152
H       -2.8935489216    0.5742521183   -0.9689633202
H       -1.5026720290   -1.3199817728   -1.4599871400
