19   
torsion grid (-165,)
C       -3.7966557146   -0.9945249925   -1.5896746099
C       -4.0302128498   -1.6240561423   -0.3949550997
C       -1.7585757516   -0.7991152106   -0.7540547815
C        0.7096569723    0.1378389898    1.1515442855
C       -0.0731554368    0.9640459463    0.1111317864
C       -0.3102843700   -0.4030210992   -0.6315580996
C        0.4328477653   -0.5464463588   -1.9577584454
N       -2.5069945260   -0.5524083974   -1.7939307796
N        0.3565354054   -1.0457526116    0.5241809525
O        1.3923714583    0.3755592574    2.1236832140
S       -2.5756599523   -1.6439069924    0.5496946338
H       -4.5457324943   -0.8155722302   -2.3537775723
H       -5.0017617140   -1.8350916542    0.0337688034
H       -0.9725659216    1.4459644307    0.4977077036
H        0.5337339400    1.6843633310   -0.4405173052
H        1.4683292377   -0.2112277302   -1.8447693105
H       -0.0598340831    0.0483768303   -2.7296876160
H        0.4334744275   -1.5902036231   -2.2874108124
H        0.7834806910   -1.9656976647    0.5968534357
19   
torsion grid (-150,)
C       -3.7737493529   -0.9603549564   -1.5708401558
C       -4.0030281962   -1.6511990067   -0.4034569084
C       -1.7207675375   -0.8303469956   -0.7699597370
C        0.8224700393   -0.0240854425    1.0939421713
C        0.0420800660    0.8524735246    0.0936505813
C       -0.2563899042   -0.4877953890   -0.6757901917
C        0.4504790768   -0.6219548826   -2.0225041609
N       -2.4826695937   -0.5367902929   -1.7893436334
N        0.4152232590   -1.1800065528    0.4477722771
O        1.5361522721    0.1676015989    2.0537670562
S       -2.5222736818   -1.7290376248    0.5038086459
H       -4.5412552582   -0.7069340221   -2.2951513415
H       -4.9771553970   -1.6385624719    0.0719120979
H       -0.8317776685    1.3525301612    0.5143818871
H        0.6580500602    1.5669571116   -0.4554565282
H        1.4988661389   -0.3233897611   -1.9268125325
H       -0.0403941180    0.0074654575   -2.7676829525
H        0.4088852876   -1.6566809757   -2.3771610772
H        0.8156145009   -2.1138737185    0.4859190060
19   
torsion grid (-135,)
C       -3.7685855412   -0.9828837501   -1.5597396742
C       -4.0006991233   -1.7193411192   -0.4105533759
C       -1.7237246221   -0.8290596873   -0.7588579908
C        0.8181003479    0.0006034049    1.0915105650
C        0.0304636737    0.8660281978    0.0869954529
C       -0.2600711784   -0.4809463806   -0.6736882098
C        0.4437355970   -0.6191627955   -2.0216846241
N       -2.4918669265   -0.5291616690   -1.7753938713
N        0.4188383119   -1.1618064922    0.4520449174
O        1.5308042220    0.2033423812    2.0496398179
S       -2.4994085854   -1.7933075835    0.4752017387
H       -4.5478719525   -0.6983151541   -2.2606370332
H       -4.9559392538   -1.5129015854    0.0640952403
H       -0.8456161764    1.3636891063    0.5059839135
H        0.6410854431    1.5802748404   -0.4682687393
H        1.4909510501   -0.3149127020   -1.9308707555
H       -0.0526239907    0.0034921833   -2.7688565458
H        0.4065265860   -1.6562352603   -2.3701100713
H        0.8267366734   -2.0922206178    0.4939757078
19   
torsion grid (-120,)
C       -3.7689075772   -1.0199978054   -1.5552369265
C       -4.0059285953   -1.8023554925   -0.4240626563
C       -1.7381318262   -0.8287552305   -0.7415762166
C        0.7776134387    0.0495704054    1.1127867275
C       -0.0138640619    0.8941193583    0.0932164760
C       -0.2785837604   -0.4641182490   -0.6561739259
C        0.4320795111   -0.6055844469   -2.0005336862
N       -2.5108227421   -0.5177174709   -1.7541626677
N        0.4058951453   -1.1239464451    0.4777839753
O        1.4752879445    0.2724292390    2.0773238348
S       -2.4837291388   -1.8800095811    0.4348090548
H       -4.5588587932   -0.7100167440   -2.2341922753
H       -4.9310484036   -1.4239213794    0.0119671415
H       -0.8997841051    1.3841690528    0.5003670414
H        0.5910781279    1.6106302656   -0.4652735434
H        1.4759460927   -0.2905646818   -1.9079458198
H       -0.0674800853    0.0066722102   -2.7541444669
H        0.4066699349   -1.6457730776   -2.3408240286
H        0.8212860741   -2.0500686790    0.5359941564
19   
torsion grid (-105,)
C       -3.7596017526   -1.0651342508   -1.5619893865
C       -4.0221182588   -1.8423896218   -0.4165734493
C       -1.7431127067   -0.8421251573   -0.7327104557
C        0.7642456604    0.0557283136    1.1193076988
C       -0.0386093408    0.8940587781    0.1030780162
C       -0.2867918440   -0.4655645644   -0.6503931993
C        0.4245909709   -0.5944358896   -1.9957109133
N       -2.5126695970   -0.5434314034   -1.7560046648
N        0.4061466738   -1.1199608834    0.4809077295
O        1.4592472073    0.2847929830    2.0840436552
S       -2.4781584691   -1.9219085362    0.4205010132
H       -4.5535035145   -0.7456966920   -2.2334444738
H       -4.8578740117   -1.2586774660   -0.0126292586
H       -0.9296812893    1.3716603143    0.5139181849
H        0.5557568985    1.6196228597   -0.4549593874
H        1.4651960641   -0.2692708342   -1.9018084331
H       -0.0811179133    0.0154152285   -2.7470806390
H        0.4100842021   -1.6335809405   -2.3398255506
H        0.8301882900   -2.0422339511    0.5373747745
19   
torsion grid (-90,)
C       -3.7531770914   -1.1025814603   -1.5493183175
C       -4.0405670909   -1.8540126976   -0.3731332444
C       -1.7432781010   -0.8508170624   -0.7221489306
C        0.7727262702    0.0447171465    1.1154510712
C       -0.0417577441    0.8854408098    0.1100979434
C       -0.2877633181   -0.4711709588   -0.6501621129
C        0.4143897837   -0.5884296542   -2.0014183117
N       -2.5157535518   -0.5642205059   -1.7489122984
N        0.4162769990   -1.1286178628    0.4720361159
O        1.4724807493    0.2719338497    2.0768783470
S       -2.4707924334   -1.9419044920    0.4228855280
H       -4.5482140973   -0.7906795755   -2.2243994911
H       -4.7990245951   -1.0984028653   -0.0957771751
H       -0.9318736811    1.3557863474    0.5313858325
H        0.5439120022    1.6173121386   -0.4488058026
H        1.4543500215   -0.2600362527   -1.9121918901
H       -0.0984616700    0.0242849318   -2.7455204394
H        0.4016708083   -1.6253675705   -2.3521278783
H        0.8429200556   -2.0500821042    0.5214037353
19   
torsion grid (90,)
C        1.1285305697   -0.6294218429    0.8206778590
C        0.0012469743   -1.3415696259    0.3152831578
C        2.2617239632   -2.4677540884    0.4612086951
C        3.2622188791   -5.5008592963    1.1127937391
C        3.4629866015   -4.2176583983    1.9454427983
C        3.3928823793   -3.4521783792    0.5719493401
C        4.7126638956   -2.8286989635    0.1172531496
N        2.3501886819   -1.2281071790    0.9001451098
N        3.0800920007   -4.7608616576   -0.0434675157
O        3.2750130293   -6.6924117232    1.3288399400
S        0.6336180542   -2.9696480230    0.0987999730
H        1.0872697547    0.4466536230    0.9806790867
H       -0.0626931694   -0.6199626310   -0.5202782494
H        2.6524227372   -3.9977450497    2.6419312116
H        4.4262979228   -4.1530796806    2.4543349164
H        5.5231673648   -3.5532875016    0.2383872955
H        4.9308256517   -1.9361521134    0.7070925266
H        4.6603393557   -2.5354064579   -0.9361538780
H        3.1304267391   -5.0547824182   -1.0153791362
19   
torsion grid (105,)
C        1.1513139770   -0.5888075132    0.7866664014
C        0.0297153113   -1.3263359475    0.3567566385
C        2.2693258161   -2.4488992874    0.4717693101
C        3.2519842267   -5.4896880955    1.1171913075
C        3.4561115893   -4.2112975559    1.9562733625
C        3.3962339073   -3.4385334654    0.5864586543
C        4.7219044780   -2.8208591132    0.1419692444
N        2.3686057581   -1.1994136348    0.8726005840
N        3.0804004634   -4.7434385402   -0.0364188012
O        3.2558877712   -6.6824706371    1.3276885721
S        0.6372252700   -2.9573096002    0.1266551417
H        1.1143029789    0.4907074141    0.9151096698
H       -0.2599058422   -0.7021180544   -0.4968893575
H        2.6434253170   -3.9904406579    2.6500057520
H        4.4173722167   -4.1550035731    2.4700822353
H        5.5269239304   -3.5522374341    0.2590466913
H        4.9443236976   -1.9353364079    0.7406981794
H        4.6748903901   -2.5164220349   -0.9084503768
H        3.1310566028   -5.0329547208   -1.0096383360
19   
torsion grid (120,)
C        1.1830759605   -0.5702639266    0.7470331238
C        0.0743938702   -1.3233125147    0.3561416553
C        2.2908062304   -2.4465119309    0.4638991749
C        3.2422403809   -5.5024246871    1.0888256257
C        3.4502282924   -4.2343490709    1.9420335318
C        3.4086171144   -3.4471070253    0.5799864519
C        4.7435435237   -2.8393402992    0.1516269825
N        2.3972858823   -1.1942641214    0.8403698606
N        3.0845519433   -4.7431270771   -0.0586757565
O        3.2358903496   -6.6975038949    1.2864173958
S        0.6574658221   -2.9509959181    0.1043428185
H        1.1473258330    0.5077558052    0.8799606559
H       -0.4318139223   -0.7349249671   -0.4095470819
H        2.6346288571   -4.0129730130    2.6321447829
H        4.4080864690   -4.1931205039    2.4637223878
H        5.5424825923   -3.5762033513    0.2763231366
H        4.9655578963   -1.9560381803    0.7538241819
H        4.7096056746   -2.5324875481   -0.8985630922
H        3.1515009251   -5.0239863419   -1.0335201618
19   
torsion grid (135,)
C        1.2239652031   -0.5461754201    0.7107779707
C        0.1216039864   -1.3060381014    0.3566506973
C        2.3091104489   -2.4463209455    0.4556727977
C        3.2264875743   -5.5235307350    1.0316965165
C        3.4374054078   -4.2740033885    1.9107508876
C        3.4161749292   -3.4602077755    0.5638849599
C        4.7622495518   -2.8619688216    0.1589729200
N        2.4315550916   -1.1902072373    0.8044811839
N        3.0822648394   -4.7406629687   -0.1020324255
O        3.2104995433   -6.7223087327    1.2052821466
S        0.6698835580   -2.9374291161    0.0875653979
H        1.1947655169    0.5307080042    0.8481602594
H       -0.5693745543   -0.8009442693   -0.3125846610
H        2.6171072070   -4.0586328093    2.5972134142
H        4.3903976623   -4.2521802156    2.4424815003
H        5.5518654229   -3.6094858674    0.2800702457
H        4.9881124080   -1.9905721686    0.7768723842
H        4.7422108226   -2.5376197363   -0.8862630823
H        3.1652080596   -5.0039186985   -1.0806238181
19   
torsion grid (150,)
C       -3.7914180614   -0.9048750122   -1.5564905156
C       -4.0752874396   -1.4444385112   -0.3226469974
C       -1.7453125122   -0.7990786286   -0.7350295008
C        0.7336598526    0.1127500526    1.1766973166
C       -0.0430248748    0.9506562335    0.1409845779
C       -0.2965781087   -0.4116448462   -0.6050198625
C        0.4439082516   -0.5589276013   -1.9327467628
N       -2.4903703868   -0.5147929519   -1.7706924016
N        0.3647158289   -1.0653455566    0.5483146984
O        1.4227762928    0.3405887719    2.1466975490
S       -2.6121727618   -1.5107631645    0.6119894385
H       -4.5090408599   -0.8119418841   -2.3654493007
H       -4.8790620238   -2.1609397980   -0.1974891627
H       -0.9366367999    1.4398168097    0.5318288385
H        0.5690539841    1.6668829250   -0.4102179516
H        1.4833677502   -0.2379545714   -1.8163548491
H       -0.0398784454    0.0462629367   -2.7021180972
H        0.4322536210   -1.6009255577   -2.2676863246
H        0.7798495564   -1.9907903537    0.6196372769
19   
torsion grid (165,)
C       -3.7995934207   -0.9468668378   -1.5783262882
C       -4.0640847951   -1.4874926019   -0.3468192144
C       -1.7560304093   -0.7921527466   -0.7450583932
C        0.7168967356    0.1354627724    1.1666109767
C       -0.0633928686    0.9672220097    0.1286542938
C       -0.3088291644   -0.3973663380   -0.6160996426
C        0.4347687950   -0.5419434418   -1.9421082305
N       -2.4995531672   -0.5420880500   -1.7885124336
N        0.3545997069   -1.0452845332    0.5393483250
O        1.4037691311    0.3683101858    2.1370839654
S       -2.6119209528   -1.5247434178    0.6009448751
H       -4.5238960020   -0.8426270872   -2.3793149978
H       -4.9421118480   -2.0603019714   -0.0766027511
H       -0.9600522406    1.4519819905    0.5180163132
H        0.5453922431    1.6861903206   -0.4226413339
H        1.4720246462   -0.2139579565   -1.8251557541
H       -0.0519609211    0.0586034233   -2.7132781164
H        0.4297855385   -1.5845026753   -2.2753636064
H        0.7754091140   -1.9680909638    0.6116104736
19   
torsion grid (180,)
C       -3.8045485461   -0.9835732786   -1.5869312230
C       -4.0474657837   -1.5558969216   -0.3677948254
C       -1.7646572096   -0.7848281350   -0.7502850236
C        0.6994567746    0.1814937549    1.1495590031
C       -0.0866526519    0.9958455331    0.1024446069
C       -0.3196298406   -0.3787311667   -0.6277543262
C        0.4249744498   -0.5312318208   -1.9521516859
N       -2.5111182135   -0.5527475312   -1.7945908171
N        0.3489909101   -1.0090495629    0.5341508681
O        1.3826553890    0.4302140079    2.1186741602
S       -2.5980645428   -1.5657998699    0.5836354092
H       -4.5401470976   -0.8561316420   -2.3738773844
H       -4.9759247954   -1.9628857969    0.0110547342
H       -0.9877217951    1.4774541049    0.4855543658
H        0.5169742574    1.7138346016   -0.4557777441
H        1.4590149991   -0.1913068329   -1.8405464923
H       -0.0687233236    0.0550781082   -2.7298985249
H        0.4299733699   -1.5777281116   -2.2729071975
H        0.7777626984   -1.9273921509    0.6160039250
