14   
torsion grid (-165,)
C       -1.6665299426   -0.0884774465    0.0783797389
C        0.4076509436   -0.7134714262    0.1434817456
C        1.7730580197   -1.3318570616    0.0555676048
C        0.2773312571    0.8242682917    0.1942988865
N        1.6039208255    1.9740439190   -1.6882520587
N       -1.1344895195    1.0872030643    0.0347813143
N       -0.7666430359   -1.2155006122    0.1391539332
N        1.0489974310    1.4766700823   -0.8675982480
N        1.8227328862   -2.6275204117   -0.2958712689
O        2.7192778904   -0.5528522413    0.1872090535
H       -2.7397927895   -0.2559844338    0.0614672050
H        0.6836362920    1.2404178134    1.1267720345
H        2.7296502370   -3.0824661579   -0.3527501927
H        0.9877881110   -3.2046486672   -0.3027466436
14   
torsion grid (-150,)
C       -1.6969753597   -0.1202682884    0.1249749627
C        0.3844787926   -0.7221978208    0.2211091342
C        1.7549261498   -1.3379945251    0.1760724223
C        0.2360205152    0.8170011635    0.1814012610
N        1.5744049069    1.8452662938   -1.7620115801
N       -1.1772085610    1.0559779211    0.0081413120
N       -0.7860021400   -1.2325602337    0.2472355858
N        1.0028474094    1.4099159100   -0.9177840763
N        1.8391597808   -2.5547452582   -0.3971479913
O        2.6858211607   -0.6034688659    0.5042333856
H       -2.7686457679   -0.2985521097    0.1223015143
H        0.6414550368    1.2900289636    1.0870334549
H        2.7483689513   -3.0094963142   -0.4172706868
H        1.0143896255   -3.1363786914   -0.5083800066
14   
torsion grid (-135,)
C       -1.7062127842   -0.1222219173    0.1795677049
C        0.3690078114   -0.7524054869    0.2530199916
C        1.7269038455   -1.4014640479    0.2965034647
C        0.2382950931    0.7905046756    0.1545091329
N        1.5113825914    1.7127186270   -1.8859517881
N       -1.1752154365    1.0424693211    0.0089790243
N       -0.8091563459   -1.2408554461    0.3258983755
N        0.9673949848    1.3267839618   -1.0001806378
N        1.8911301316   -2.4848984969   -0.4952978447
O        2.5983489318   -0.7851648494    0.9013426011
H       -2.7800048717   -0.2851555729    0.2067421091
H        0.6833723448    1.2927108264    1.0250186360
H        2.7857252942   -2.9669477916   -0.4425855261
H        1.0879541253   -3.0338324818   -0.7868462633
14   
torsion grid (-120,)
C       -1.7110585088   -0.0612589379    0.2288700040
C        0.3474560283   -0.7520454411    0.2677183054
C        1.6803907965   -1.4461392957    0.3928178011
C        0.2566423200    0.7940779832    0.1112690247
N        1.4424585953    1.5918777473   -2.0346263833
N       -1.1533189541    1.0817428614    0.0043881217
N       -0.8434028998   -1.1982627281    0.3922300640
N        0.9408077389    1.2603592887   -1.1026552661
N        1.9729389732   -2.3616477159   -0.5622430455
O        2.4375793004   -0.9874765120    1.2375527914
H       -2.7878739402   -0.1916512530    0.2907259775
H        0.7528100599    1.3191459224    0.9392998703
H        2.8477482268   -2.8709541105   -0.4520257363
H        1.2233387218   -2.8529631909   -1.0402882485
14   
torsion grid (-105,)
C       -1.7218616366   -0.0278816886    0.2736329601
C        0.3180540105   -0.7738721984    0.2958951057
C        1.6277630508   -1.5074591540    0.4643434599
C        0.2640427379    0.7698122438    0.0774664425
N        1.3903553421    1.4418258279   -2.1428720313
N       -1.1404802358    1.0916933313   -0.0043512453
N       -0.8819722096   -1.1798089484    0.4627752228
N        0.9182205747    1.1646566207   -1.1780466298
N        2.0526656648   -2.2348364520   -0.6018776300
O        2.2657953348   -1.2211083075    1.4648619189
H       -2.8001392950   -0.1266494893    0.3627467295
H        0.7956251354    1.3191180623    0.8666803153
H        2.9157903865   -2.7596013175   -0.4687467152
H        1.3681639932   -2.6658631656   -1.2169989419
14   
torsion grid (-90,)
C       -1.7204688594    0.0079840040    0.3215956612
C        0.2996598663   -0.7920063141    0.3356097152
C        1.5871915592   -1.5656354567    0.5192982929
C        0.2807001369    0.7442576037    0.0490003554
N        1.3660663123    1.2944334288   -2.2231064937
N       -1.1169489497    1.0997214475   -0.0147545610
N       -0.9068246048   -1.1553732021    0.5448632315
N        0.9133245719    1.0692288535   -1.2355015306
N        2.1277115664   -2.0930100141   -0.6171460909
O        2.1203346387   -1.4720167621    1.6099992736
H       -2.7988448603   -0.0586618956    0.4357645957
H        0.8410593972    1.3156442839    0.8019489866
H        2.9843595981   -2.6290316606   -0.4829276469
H        1.5046923985   -2.4597940779   -1.3320925075
14   
torsion grid (-75,)
C       -1.7199739908    0.0529167953    0.3683946631
C        0.2774417766   -0.8051182534    0.3704898202
C        1.5384664403   -1.6240441435    0.5644921046
C        0.2934021091    0.7187470164    0.0131790621
N        1.3324505036    1.1657142000   -2.3001838734
N       -1.0955595100    1.1114665105   -0.0304522689
N       -0.9326483581   -1.1198735653    0.6284247126
N        0.9014527991    0.9821522036   -1.2942209843
N        2.1992223428   -1.9494315124   -0.5922725566
O        1.9577362820   -1.7402231462    1.6985575883
H       -2.7966066078    0.0215784384    0.5106039157
H        0.8841433273    1.3053410213    0.7307587207
H        3.0452957960   -2.5013801341   -0.4521050175
H        1.6460650088   -2.2458722807   -1.3930576038
14   
torsion grid (-60,)
C       -1.7174008648    0.1129762672    0.3977150202
C        0.2545752505   -0.8047043213    0.3858590553
C        1.4831079217   -1.6721022650    0.5933590990
C        0.3027635844    0.7012825290   -0.0464225519
N        1.2787939058    1.0492259276   -2.4012808785
N       -1.0757200004    1.1327932495   -0.0689856951
N       -0.9554554545   -1.0659254791    0.6963512767
N        0.8784378881    0.9056479825   -1.3761162924
N        2.2774717733   -1.8110293782   -0.5236494413
O        1.7688665581   -1.9987887256    1.7255086841
H       -2.7898977649    0.1198233470    0.5708878604
H        0.9267962605    1.2996490934    0.6325072523
H        3.1064032647   -2.3837005350   -0.3638573241
H        1.8169075695   -2.0245907657   -1.4057396724
14   
torsion grid (-45,)
C       -1.7052195870    0.1484841038    0.4589901438
C        0.2390100510   -0.8274065474    0.3870259947
C        1.4329339944   -1.7487117540    0.5755438372
C        0.3093621279    0.6659022389   -0.0871899983
N        1.1768090877    0.9662165414   -2.4893391482
N       -1.0565158849    1.1377769343   -0.0609317364
N       -0.9632230222   -1.0412422275    0.7584732595
N        0.8276697114    0.8394635948   -1.4432555559
N        2.3557820040   -1.7023542528   -0.4539751437
O        1.5854749731   -2.2920518709    1.6467957069
H       -2.7686341718    0.1902240127    0.6773725311
H        0.9779455501    1.2590223472    0.5528906514
H        3.1633596498   -2.3023324970   -0.2841391632
H        2.0013041684   -1.8062385950   -1.4023719198
14   
torsion grid (-30,)
C       -1.6890092393    0.1974286859    0.5149324851
C        0.2232455382   -0.8375294014    0.3737470382
C        1.3764371624   -1.8157952668    0.5457296372
C        0.3118614209    0.6465599327   -0.1325365354
N        1.0362956649    0.8854001334   -2.5888273075
N       -1.0372145884    1.1596165943   -0.0502656620
N       -0.9671923473   -1.0049717390    0.8035270616
N        0.7539435345    0.7875322282   -1.5194301363
N        2.4332033641   -1.6226299602   -0.3283452165
O        1.3782644068   -2.5514252345    1.5064563818
H       -2.7400454286    0.2729101303    0.7794219207
H        1.0309843342    1.2292725138    0.4600759493
H        3.2050868295   -2.2655785946   -0.1510548152
H        2.2225110667   -1.5586528573   -1.3210758799
14   
torsion grid (-15,)
C       -1.7015525388   -0.1781560825   -0.1848723389
C        0.3485541439   -0.7484081721    0.2830203129
C        1.6090559271   -1.5423758759    0.5939523992
C        0.1247884094    0.8000943768    0.3898819508
N        1.5969199463    2.0302159898   -1.3384163325
N       -1.2450607216    1.0195971110   -0.0189138439
N       -0.7870933065   -1.2636284536    0.0060494070
N        0.9840656416    1.5279563719   -0.5614969039
N        2.7542845493   -0.7673159840    0.7026712699
O        1.5758341802   -2.7501092200    0.5625095238
H       -2.7347166107   -0.3836025708   -0.4511681156
H        0.3462565055    1.2206605582    1.3789714458
H        3.5885274836   -1.3274651585    0.8771810478
H        2.7294093122    0.0602642168    1.2928093658
14   
torsion grid (0,)
C       -1.7102200255   -0.1691747325   -0.1321228279
C        0.3455045303   -0.7562161377    0.2806254252
C        1.6294308721   -1.5332070836    0.5137436707
C        0.1503807480    0.7957637518    0.3433432260
N        1.6200691829    1.9440988238   -1.4418906981
N       -1.2262682577    1.0251275405   -0.0318971248
N       -0.8053834633   -1.2645456553    0.0605657550
N        1.0078456814    1.4761796575   -0.6437121580
N        2.7221050196   -0.7306097167    0.8123327467
O        1.6680336740   -2.7168985155    0.2698357185
H       -2.7563379965   -0.3658088511   -0.3500918887
H        0.4020181937    1.2429830002    1.3132056622
H        3.5788882886   -1.2701522948    0.9352988905
H        2.6169347046   -0.0256063926    1.5380510640
14   
torsion grid (15,)
C       -1.7234878065   -0.1592016525   -0.0625691285
C        0.3426581726   -0.7366989128    0.2981038396
C        1.6517768422   -1.4883344895    0.4544106431
C        0.1542395306    0.8166833410    0.3084828184
N        1.6011846737    1.8873932694   -1.5399489778
N       -1.2323405220    1.0360312361   -0.0328854894
N       -0.8148565115   -1.2512161360    0.1377184395
N        0.9937418173    1.4547211490   -0.7186301152
N        2.6887796923   -0.7091011441    0.9405233746
O        1.7550350778   -2.6084670757    0.0075839514
H       -2.7775624587   -0.3600123681   -0.2329930932
H        0.4337256908    1.2966621061    1.2545880956
H        3.5633245650   -1.2257173979    1.0305371817
H        2.5094613341   -0.1164549227    1.7475516876
14   
torsion grid (30,)
C       -1.7136532139   -0.1479391719   -0.0116025302
C        0.3658461142   -0.7068242059    0.2950944354
C        1.6941687533   -1.4335585044    0.3945408970
C        0.1715100747    0.8460143309    0.2580723638
N        1.5642561633    1.8479622372   -1.6688054988
N       -1.2258200705    1.0485618070   -0.0436251041
N       -0.7939041824   -1.2306225195    0.1930874245
N        0.9772739363    1.4484597103   -0.8163388379
N        2.6691119459   -0.7380785761    1.0790355828
O        1.8601779538   -2.4461465286   -0.2508446588
H       -2.7724934695   -0.3571892704   -0.1359662622
H        0.4848656514    1.3570898421    1.1766236596
H        3.5529616909   -1.2407945862    1.1512202453
H        2.4149150675   -0.2576230161    1.9384230219
14   
torsion grid (45,)
C       -1.7137840181   -0.1498251252    0.0493926428
C        0.3815439916   -0.6771154387    0.2972373130
C        1.7274317653   -1.3741263952    0.3559240470
C        0.1693303929    0.8719653646    0.2097126288
N        1.4711440605    1.8068151360   -1.8129870507
N       -1.2402969174    1.0491098651   -0.0441844700
N       -0.7753720817   -1.2156332887    0.2598100181
N        0.9232672626    1.4385519478   -0.9212506042
N        2.6324497843   -0.8119918849    1.2206437880
O        1.9601550207   -2.2345138968   -0.4693763775
H       -2.7741750602   -0.3734078289   -0.0274984046
H        0.5202125092    1.4173148491    1.0942396949
H        3.5251736852   -1.3008659567    1.2711882566
H        2.3082508463   -0.4537564476    2.1149937866
14   
torsion grid (60,)
C       -1.6691799174   -0.1498609685    0.0917081208
C        0.4404896576   -0.6331125105    0.2944092665
C        1.8085445950   -1.2822931266    0.3324214239
C        0.2002035449    0.9080632099    0.1638756172
N        1.4127753086    1.7721620897   -1.9464089102
N       -1.2196269072    1.0534395864   -0.0490358465
N       -0.7066916809   -1.1935029631    0.3106061293
N        0.9032463733    1.4388924004   -1.0189259244
N        2.6231485423   -0.8926956753    1.3556028249
O        2.1330663092   -1.9307217353   -0.6464290604
H       -2.7272890451   -0.3930735862    0.0522721282
H        0.5785530404    1.4885759721    1.0138443423
H        3.5334292990   -1.3495549032    1.3837066311
H        2.2219819342   -0.6868903594    2.2663674908
14   
torsion grid (75,)
C       -1.6562383390   -0.1422348884    0.1360549052
C        0.4597160489   -0.5986507203    0.3087770925
C        1.8439124418   -1.2027695153    0.3335419188
C        0.2068038625    0.9306735825    0.1116478851
N        1.3553093137    1.6826160207   -2.0772204600
N       -1.2198057414    1.0564562794   -0.0684596505
N       -0.6806203954   -1.1689267272    0.3822690816
N        0.8729248176    1.3987410384   -1.1195208295
N        2.5802624514   -1.0076683489    1.4574607289
O        2.2478356005   -1.6166519109   -0.7431641289
H       -2.7131035708   -0.3938198173    0.1328002234
H        0.6077627012    1.5543335962    0.9197104583
H        3.5085205933   -1.4273322983    1.4610641948
H        2.1207367094   -0.9525278134    2.3619258579
14   
torsion grid (90,)
C       -1.6378816199   -0.1465934232    0.1831373906
C        0.4856124107   -0.5627936686    0.3410907498
C        1.8849353451   -1.1207722627    0.3602428941
C        0.2110498808    0.9472077420    0.0661652713
N        1.3084087274    1.6072064605   -2.1779271706
N       -1.2216036474    1.0449596219   -0.0910944356
N       -0.6433244564   -1.1466646900    0.4675602392
N        0.8489715052    1.3570416387   -1.2001443293
N        2.5459343564   -1.1279414699    1.5393456642
O        2.3588857617   -1.3125134579   -0.7540082182
H       -2.6910168377   -0.4117734117    0.2120443413
H        0.6167477927    1.6187647853    0.8327100616
H        3.4879477258   -1.5149153902    1.5338775396
H        2.0344428481   -1.2005917180    2.4137776160
14   
torsion grid (105,)
C       -1.6188554537   -0.1335348707    0.2200808668
C        0.5117359422   -0.5169952432    0.3501015199
C        1.9224876012   -1.0388325475    0.3794551149
C        0.2160624333    0.9676364904   -0.0085263001
N        1.2446657637    1.5511605162   -2.3056952018
N       -1.2218907361    1.0427651463   -0.1345133415
N       -0.6055411493   -1.1061807119    0.5397796262
N        0.8202300892    1.3198872353   -1.3080507904
N        2.4964030494   -1.2534293658    1.5800404702
O        2.4721231721   -1.0357242271   -0.7193043176
H       -2.6680047225   -0.4065872682    0.2904763402
H        0.6294572096    1.6854213514    0.7109995378
H        3.4431372126   -1.6278004543    1.5845284493
H        1.9258370561   -1.4384092520    2.3993261195
14   
torsion grid (120,)
C       -1.5978409226   -0.1371063708    0.2765335032
C        0.5419550608   -0.4705214180    0.3761539923
C        1.9677121057   -0.9442193733    0.4209998553
C        0.2114893489    0.9814545540   -0.0582800560
N        1.1661223324    1.5116359098   -2.3983127471
N       -1.2312908664    1.0229361954   -0.1549657021
N       -0.5568135915   -1.0717438583    0.6264628270
N        0.7834905924    1.2890941860   -1.3821097959
N        2.4545437241   -1.3685683901    1.6010435893
O        2.5946642996   -0.7472975628   -0.6192744678
H       -2.6394424757   -0.4249552004    0.3880599138
H        0.6218516930    1.7414349224    0.6189256847
H        3.4086684992   -1.7217437669    1.6205925131
H        1.8311643154   -1.6618133380    2.3465333228
14   
torsion grid (135,)
C       -1.6807418764   -0.0537678570   -0.0219827275
C        0.3696439682   -0.7438081153   -0.1461933945
C        1.7067052301   -1.3940825384   -0.3581412606
C        0.2963069131    0.7348942259    0.3039456570
N        1.5271066901    2.3199331974   -1.3184484717
N       -1.1104367880    1.0696537730    0.2579028586
N       -0.8218085585   -1.1887499833   -0.2616909777
N        1.0314792382    1.6229705272   -0.6133384644
N        1.8863859557   -2.6263313460    0.1450788307
O        2.5504126953   -0.6671791088   -0.8852275526
H       -2.7590416026   -0.1731043001   -0.0786639673
H        0.7471128448    0.9043325737    1.2904415135
H        2.7724599761   -3.0934865717   -0.0308744252
H        1.0970815711   -3.1938316966    0.4365137723
14   
torsion grid (150,)
C       -1.6702381904   -0.0662567065    0.0032912317
C        0.3901940273   -0.7301352158   -0.0835397000
C        1.7393826325   -1.3651618296   -0.2542186735
C        0.2961869235    0.7704195089    0.2705847872
N        1.5187630360    2.2761558714   -1.4283538274
N       -1.1152420204    1.0817378364    0.2027682113
N       -0.7937289926   -1.2013287249   -0.1667525328
N        1.0290085454    1.6104925538   -0.6895952893
N        1.8506539024   -2.6666310314    0.0501410941
O        2.6353002325   -0.5926902350   -0.6032218082
H       -2.7467265651   -0.2057735726   -0.0402977787
H        0.7393096941    1.0027801456    1.2479326538
H        2.7433303497   -3.1292185285   -0.0991472070
H        1.0328971175   -3.2369580157    0.2389854012
14   
torsion grid (165,)
C       -1.6683533599   -0.0753086598    0.0389850959
C        0.3984776461   -0.7219937089   -0.0024243333
C        1.7559792498   -1.3451785270   -0.1433546362
C        0.2885925322    0.7959983723    0.2512725096
N        1.5294654483    2.2005801483   -1.5165021309
N       -1.1246361926    1.0895538038    0.1553179209
N       -0.7802249238   -1.2104225018   -0.0551126241
N        1.0305427303    1.5790502923   -0.7460421857
N        1.8288895452   -2.6803360263   -0.0529481870
O        2.6802633618   -0.5491023441   -0.3299058495
H       -2.7433649647   -0.2286318497    0.0069550792
H        0.7198841346    1.0898629835    1.2176276024
H        2.7282487593   -3.1360905953   -0.1784205163
H        0.9981007787   -3.2521038069    0.0582092133
14   
torsion grid (180,)
C       -1.6710335458   -0.0924436007    0.0501504074
C        0.4025671989   -0.7196840577    0.0677136538
C        1.7671858675   -1.3332388667   -0.0468989143
C        0.2749304208    0.8107608862    0.2196948829
N        1.5583253625    2.0960327020   -1.6055033783
N       -1.1390759249    1.0831730590    0.0872086971
N       -0.7711367063   -1.2216695131    0.0352883691
N        1.0311899869    1.5332231722   -0.8091535881
N        1.8233551090   -2.6665462839   -0.1770543023
O        2.7054163647   -0.5325497391   -0.0754181997
H       -2.7442534205   -0.2586665754    0.0224648580
H        0.6884026700    1.1688092964    1.1724693722
H        2.7297724243   -3.1165550577   -0.2664185182
H        0.9900364654   -3.2426766345   -0.1199883636
