19   
torsion grid (-165,)
C       -0.4590251512   -0.8793021530   -1.7916161902
C        0.1514173119    0.1453920896   -2.5995700996
C       -0.2215636936    0.0552272039   -3.9261629309
C       -1.2696642856   -1.7128771772   -2.5073425552
C        2.0833768707    1.9861323877   -2.6786779545
C        0.8549822850    2.6403324455   -2.0941782772
C        1.0564255762    1.1385550064   -1.9499578071
C        0.1777769041    0.8738705829   -5.1262644961
S       -1.3226435553   -1.2814792199   -4.1851156932
Br      -2.2650182237   -3.1828440014   -1.8449272276
H       -0.2964886090   -0.9795047737   -0.7237189253
H        2.1594793588    1.9007486710   -3.7553430349
H        3.0344747873    2.1437411788   -2.1784149864
H        0.9635585000    3.2559193736   -1.2060677155
H        0.0767671876    2.9676262433   -2.7769055058
H        1.3735344271    0.8199474251   -0.9605695536
H        1.1775639237    0.6027116814   -5.4838497044
H       -0.5171204479    0.7171706589   -5.9563145227
H        0.1757010530    1.9442213621   -4.9047877516
19   
torsion grid (-150,)
C       -0.3876095644   -0.8383691792   -1.7472091469
C        0.2734173292    0.1023963724   -2.6163213259
C       -0.1289086534   -0.0277748661   -3.9299957667
C       -1.2637956204   -1.6504856441   -2.4071891057
C        1.9822624036    2.1630015571   -2.7682193900
C        0.8309247089    2.5571681722   -1.8753670248
C        1.2195492352    1.0893699797   -2.0186017647
C        0.2952384807    0.7091716480   -5.1737267759
S       -1.3201266191   -1.3002702974   -4.1043617374
Br      -2.3386953445   -3.0192357589   -1.6573938356
H       -0.2125608546   -0.8932809935   -0.6779383072
H        1.8498030452    2.2613969529   -3.8372670862
H        2.9913015893    2.3742885392   -2.4263828659
H        1.0407412928    3.0542450595   -0.9327434156
H       -0.0942039683    2.8614868099   -2.3560827847
H        1.7457853532    0.6902962249   -1.1546113702
H        1.3726111822    0.6173934862   -5.3414080318
H       -0.2068256902    0.3055026771   -6.0573949637
H        0.0468636692    1.7746200448   -5.1212834992
19   
torsion grid (-135,)
C       -0.7483171670   -0.6077744415   -1.8967190501
C        0.1151141465    0.1802623595   -2.7411836046
C       -0.2255384388    0.0877729412   -4.0737337859
C       -1.7118856790   -1.2726262810   -2.5966309700
C        1.8430713608    2.2132559187   -2.7718865987
C        0.8306149339    2.4514328344   -1.6780062617
C        1.1708848659    1.0282093128   -2.1147548144
C        0.4104470325    0.6970135052   -5.2949507337
S       -1.6076747897   -0.9659503915   -4.3024647297
Br      -3.0543023377   -2.4109523971   -1.8937986533
H       -0.6487703451   -0.6591307512   -0.8177098786
H        1.5561557369    2.4871163227   -3.7792853615
H        2.8931723803    2.3774909398   -2.5483378079
H        1.1781974864    2.7825924463   -0.7037242925
H       -0.1423821984    2.8332436591   -1.9720741072
H        1.7735425977    0.4957895844   -1.3814321218
H        1.4998614630    0.6772472123   -5.2149171309
H        0.1369432304    0.1419355199   -6.1969071589
H        0.0975430765    1.7368214353   -5.4464652713
19   
torsion grid (-120,)
C       -1.2149276078   -0.0788173260   -2.1228996296
C       -0.1151653021    0.4547690900   -2.8870532078
C       -0.3309557146    0.3832786829   -4.2458206274
C       -2.2300471243   -0.5364742101   -2.9105412410
C        1.8400366353    2.2331118700   -2.7463338483
C        0.9209553952    2.4420348218   -1.5671386300
C        1.0618091446    1.0589867727   -2.1954287640
C        0.5590216202    0.7848445501   -5.3902223064
S       -1.8883043863   -0.3373249392   -4.6032474689
Br      -3.8656255765   -1.3024257896   -2.3362104606
H       -1.2384592399   -0.1018457212   -1.0387362298
H        1.5278950385    2.6555664837   -3.6946285438
H        2.9129175642    2.2543196681   -2.5784024397
H        1.3593901077    2.6007808782   -0.5862136399
H       -0.0097500901    2.9722305983   -1.7449674834
H        1.6208168317    0.3624596925   -1.5728094359
H        1.6091003614    0.7049179945   -5.1024251950
H        0.4016617276    0.1371882341   -6.2579257417
H        0.3717980510    1.8160431056   -5.7132887297
19   
torsion grid (-105,)
C        1.1711514865    0.0021648746   -0.1697198000
C        0.7144775544    0.6400280359   -1.3778335157
C       -0.5872588390    0.3165224221   -1.6904877741
C        0.2123980321   -0.7812934958    0.4036871640
C        1.0916097804    2.8903771022   -2.6861486349
C        2.0493229678    2.8688937298   -1.5178242670
C        1.5939327137    1.5649665851   -2.1543052440
C       -1.4244850960    0.7514750585   -2.8606306806
S       -1.2723215860   -0.7728830495   -0.5022354709
Br       0.3653420890   -1.7907269609    2.0003477862
H        2.1638701221    0.1390709990    0.2449712919
H        0.0612479282    3.1593804479   -2.4775678015
H        1.4589203769    3.2256939832   -3.6517808375
H        3.0753540073    3.1848168269   -1.6820657706
H        1.6489106699    3.1088708800   -0.5373058703
H        2.3604496238    1.0706152726   -2.7493415222
H       -2.0802333517    1.5916631626   -2.6018391586
H       -0.7836884725    1.0657498215   -3.6865722706
H       -2.0606524349   -0.0632305965   -3.2200178326
19   
torsion grid (-90,)
C        1.4762762676   -0.1988554030   -0.4570554901
C        0.8781938866    0.5073496035   -1.5598948766
C       -0.3993061641    0.0753082990   -1.8391557881
C        0.6421552278   -1.1389857990    0.0753521572
C        1.0011797981    2.9718226820   -2.4413383399
C        2.2008476656    2.7504022844   -1.5486482628
C        1.5969905378    1.5840349302   -2.3073547183
C       -1.3453820831    0.5535129384   -2.9029164589
S       -0.8904063706   -1.2008200132   -0.7458828407
Br       1.0010889120   -2.2880899479    1.5389440206
H        2.4757734409   -0.0011047738   -0.0859302350
H        0.0453939536    3.1519194779   -1.9586051078
H        1.1441582205    3.5024955277   -3.3782982342
H        3.1650595036    3.1282385066   -1.8755978307
H        2.0391060322    2.7843771071   -0.4752377068
H        2.1816288648    1.2386013134   -3.1586598038
H       -2.1714896707    1.1362938428   -2.4782314903
H       -0.8146937749    1.1898084440   -3.6135062489
H       -1.7825702974   -0.2824420021   -3.4587273705
19   
torsion grid (-75,)
C        1.8986708620   -0.4483054020   -1.0707952775
C        1.0837980506    0.3487091285   -1.9484425240
C       -0.1605464919   -0.2015626207   -2.1645310327
C        1.2556656592   -1.5741718026   -0.6409757500
C        0.9427213112    2.9520860284   -2.1708714276
C        2.3640840870    2.6170511513   -1.7790654880
C        1.5522108584    1.6205723835   -2.5781033699
C       -1.2632685757    0.3120276861   -3.0435986332
S       -0.3525982106   -1.7037303491   -1.2901661507
Br       1.9316817514   -2.8953896275    0.5375249126
H        2.9091216808   -0.1853911556   -0.7787960651
H        0.1901459610    2.9333409100   -1.3881365113
H        0.7815260851    3.6990252074   -2.9429360252
H        3.1745377660    3.1363386486   -2.2817736569
H        2.5520946010    2.3889860129   -0.7339954091
H        1.8179521970    1.5390288636   -3.6306733238
H       -2.2485037618    0.1654063972   -2.5896451111
H       -1.1261462771    1.3814966179   -3.2211550080
H       -1.2689242207   -0.1913375517   -4.0178727971
19   
torsion grid (-60,)
C        1.7019719832   -0.1526849718   -0.6299606459
C        0.9840803044    0.5006588350   -1.6905852591
C       -0.2331062815   -0.0907353070   -1.9507876099
C        1.0139731599   -1.2129293606   -0.1098347519
C        1.0484453827    3.0841157214   -2.0963932860
C        2.4734592802    2.6501822485   -1.8413070099
C        1.4977113525    1.6743944949   -2.4587252986
C       -1.2408590110    0.2953861159   -2.9940248199
S       -0.5176267541   -1.4540076650   -0.8956166282
Br       1.5677745475   -2.3493428239    1.3020316743
H        2.6826325540    0.1499986725   -0.2815995149
H        0.3926080612    3.1859168435   -1.2368993208
H        0.8561964662    3.7825033199   -2.9059056487
H        3.2579202244    3.0544753257   -2.4739899127
H        2.7682432136    2.4902778867   -0.8086545347
H        1.6200147366    1.4998333426   -3.5257378057
H       -2.2668422128    0.1342845647   -2.6491355677
H       -1.1300436990    1.3550649941   -3.2398463196
H       -1.1076620695   -0.2800147244   -3.9183325158
19   
torsion grid (-45,)
C        1.6612397580    0.1679685463   -0.3540441820
C        0.9481687990    0.6289404451   -1.5134863951
C       -0.2078889448   -0.0860480934   -1.7427072352
C        1.0309885409   -0.8754180717    0.2658838408
C        1.0611697398    3.1963778355   -2.0037333985
C        2.4883085219    2.7016514846   -2.0065989831
C        1.3740913967    1.7553555654   -2.3933976734
C       -1.1990471267    0.1055564335   -2.8551640736
S       -0.4366286147   -1.3328365032   -0.5422230167
Br       1.6100333167   -1.7920022674    1.8202822542
H        2.6006218393    0.5805835701   -0.0056091673
H        0.5845240089    3.3502198427   -1.0402236675
H        0.7452195012    3.8805436325   -2.7860929959
H        3.1527872385    3.0455831218   -2.7935384081
H        2.9725485597    2.5618933595   -1.0454217753
H        1.2907059326    1.5477464125   -3.4576406469
H       -2.1554470020   -0.3766632004   -2.6352466927
H       -1.3897818609    1.1718966898   -3.0130911913
H       -0.8281176619   -0.3110356270   -3.7997187616
19   
torsion grid (-30,)
C        1.5626904299    0.3282400195   -0.2758165023
C        0.8802066333    0.7001668087   -1.4861660393
C       -0.2137245100   -0.0988375710   -1.7408392979
C        0.9788655223   -0.7386302024    0.3477692251
C        1.1779892287    3.2745882799   -1.8366465462
C        2.5211942185    2.6523771803   -2.1310324113
C        1.2588951854    1.8453759328   -2.3598392179
C       -1.1688379185   -0.0232646411   -2.8993375435
S       -0.4106212905   -1.3257677223   -0.5119457721
Br       1.5469310298   -1.5626489900    1.9570278528
H        2.4478301907    0.8197239483    0.1103785873
H        0.8943718605    3.3956597871   -0.7953591054
H        0.8013796075    4.0441071012   -2.5045577602
H        3.0625003193    2.9895690632   -3.0099054598
H        3.1579540825    2.3908720481   -1.2922157228
H        0.9866337485    1.7177660073   -3.4037981040
H       -2.1006402347   -0.5554422762   -2.6889928407
H       -1.4256177310    1.0178902831   -3.1179586519
H       -0.7366880268   -0.4610798669   -3.8074402244
19   
torsion grid (-15,)
C        1.7721256093   -0.5615607183   -1.5745485926
C        0.9605635422    0.2855401812   -2.4078336224
C       -0.1056472932   -0.3873256555   -2.9638851297
C        1.3110125048   -1.8467512009   -1.5281831755
C        1.4612344371    2.6564384090   -1.4307513215
C        2.5773237437    2.3485378713   -2.3977466210
C        1.2042670842    1.7370182204   -2.6171059740
C       -1.1729376607    0.1485759954   -3.8787702273
S       -0.1181953920   -2.0700738425   -2.4884710217
Br       2.0725320347   -3.2905516037   -0.5654201771
H        2.6564696199   -0.2365240413   -1.0381124410
H        1.4933284052    2.1910578607   -0.4499521539
H        1.0169493796    3.6475110547   -1.4479767805
H        2.8926478968    3.1281975906   -3.0847700913
H        3.3784923523    1.6943405387   -2.0684624873
H        0.6381629138    2.1719219502   -3.4351078209
H       -1.9554701562   -0.5928608307   -4.0604859032
H       -1.6527342557    1.0330433466   -3.4462992997
H       -0.7581175660    0.4336941207   -4.8526761368
19   
torsion grid (0,)
C        1.6729077081   -0.5693661827   -1.5439714052
C        0.8860795161    0.2938295993   -2.3849409770
C       -0.1193651276   -0.3821287649   -3.0406597999
C        1.2485507076   -1.8671194487   -1.5831245655
C        1.6086980226    2.5888235794   -1.3626778275
C        2.5417696339    2.3127907018   -2.5150981606
C        1.1273841337    1.7518369074   -2.5373435693
C       -1.1374223450    0.1624913399   -4.0054079749
S       -0.1142621448   -2.0842358259   -2.6370606222
Br       1.9904307672   -3.3313907968   -0.6360924762
H        2.5129764404   -0.2446924790   -0.9398870592
H        1.7846208485    2.0728652999   -0.4234641251
H        1.2013415386    3.5899771568   -1.2558354298
H        2.7739963171    3.1246097056   -3.1981323755
H        3.3533611286    1.6078805497   -2.3616460194
H        0.4416072092    2.2517006325   -3.2143041369
H       -1.8578853064   -0.6038698440   -4.3033232457
H       -1.7032710286    0.9871819444   -3.5585240329
H       -0.6604809627    0.5377792563   -4.9180888907
19   
torsion grid (15,)
C        1.2297007750   -0.7153726947   -1.8003449683
C        0.6386012683    0.3630681616   -2.5477266030
C       -0.3567142303   -0.0678574468   -3.3976763280
C        0.6649302053   -1.9246833880   -2.0917235352
C        1.8159197491    2.3065493212   -1.2405843945
C        2.5520054135    2.1421546208   -2.5469923219
C        1.0746240387    1.7815515731   -2.4572067134
C       -1.2034198556    0.7491401222   -4.3348896558
S       -0.5955972378   -1.7962870734   -3.2788856434
Br       1.1289134294   -3.6022277944   -1.3422648642
H        2.0332803045   -0.6016753778   -1.0814699460
H        2.0313101936    1.6103252637   -0.4360691315
H        1.5783839421    3.3123728240   -0.9069652886
H        2.8270320288    3.0327471507   -3.1046718377
H        3.2512476755    1.3161017608   -2.6375306797
H        0.3901999345    2.4901678178   -2.9134682313
H       -1.7697875668    0.1139044633   -5.0212391766
H       -1.9248622341    1.3678356013   -3.7880918545
H       -0.5819769414    1.4150870516   -4.9424022393
19   
torsion grid (30,)
C        0.9914792126   -0.7557945257   -1.7621277531
C        0.5158810937    0.3739155536   -2.5143969108
C       -0.4129092041    0.0182992496   -3.4688544941
C        0.4114497121   -1.9288303858   -2.1571058985
C        1.9351541963    2.1748566242   -1.2263951690
C        2.4391697505    2.1404152101   -2.6486181965
C        0.9912277899    1.7746021586   -2.3420730297
C       -1.1284504523    0.9119960758   -4.4433664596
S       -0.7280357096   -1.7002065051   -3.4468605927
Br       0.7340921798   -3.6523833110   -1.4383568151
H        1.7202110706   -0.7030566772   -0.9618570735
H        2.2827187569    1.4072477728   -0.5426176770
H        1.7746846732    3.1426626497   -0.7608016851
H        2.6326860677    3.0810256492   -3.1564132137
H        3.0972166409    1.3244753816   -2.9324256027
H        0.2567119138    2.5296641231   -2.6080687914
H       -1.6162608275    0.3368592209   -5.2350052746
H       -1.9016561041    1.5105188222   -3.9466337914
H       -0.4257099743    1.6021734264   -4.9211811219
19   
torsion grid (45,)
C        1.8366332268   -0.7849937463   -2.0152776322
C        1.0915455436    0.2611636277   -2.6627549963
C        0.2755185385   -0.2142989001   -3.6665800561
C        1.5724509765   -2.0182610698   -2.5414001836
C        2.2394204509    2.2525945609   -1.3838828420
C        2.2905640577    2.5791752977   -2.8577977674
C        1.1693147230    1.7081671190   -2.3048192134
C       -0.6530963159    0.5640226941   -4.5538131838
S        0.4085480589   -1.9494341439   -3.8293615015
Br       2.3222313503   -3.6715748222   -1.9973961363
H        2.5208593446   -0.6301796141   -1.1896598511
H        2.9854771210    1.5670872469   -0.9953303473
H        1.9516510631    3.0380156443   -0.6915890525
H        2.0467417525    3.5879566259   -3.1788802206
H        3.0474587746    2.0800833882   -3.4556023568
H        0.2049580069    2.2049567266   -2.2329018290
H       -0.6872042690    0.1511269312   -5.5666648479
H       -1.6784545012    0.5699154793   -4.1640425919
H       -0.3151363588    1.6010544917   -4.6289817059
19   
torsion grid (60,)
C        1.6840717597   -0.8320989743   -1.8832867015
C        1.0342400491    0.2398914976   -2.5879226340
C        0.2811303570   -0.2038129732   -3.6531383464
C        1.4170827111   -2.0546042622   -2.4326304643
C        2.3360126489    2.2223735203   -1.4734800105
C        2.0989396550    2.6070177185   -2.9157580182
C        1.1259027180    1.6797934466   -2.2002036569
C       -0.5503531472    0.6125087572   -4.5991986652
S        0.3638767655   -1.9421641592   -3.8110613470
Br       2.0661377112   -3.7351197552   -1.8442442133
H        2.3088429657   -0.6951874205   -1.0083418783
H        3.1547582014    1.5392741107   -1.2692184221
H        2.1734524683    2.9721716744   -0.7051195634
H        1.7729437913    3.6194812576   -3.1364953751
H        2.7435489262    2.1598508360   -3.6666441765
H        0.1757130971    2.1401666238   -1.9371980587
H       -0.4972188286    0.2293978553   -5.6230918817
H       -1.6067043052    0.6243884416   -4.3042090142
H       -0.1921113728    1.6453844181   -4.6068196902
19   
torsion grid (75,)
C        0.0395941872   -0.5362017209   -1.3447624854
C        0.0422153607    0.5548359661   -2.2828818175
C       -0.6937739141    0.2845494556   -3.4154522795
C       -0.6897018901   -1.6027225483   -1.7873062165
C        2.1196813484    1.8666558789   -1.4022653576
C        1.9596273617    2.2406350501   -2.8584081522
C        0.7441782762    1.8507152462   -2.0333028527
C       -0.9506975834    1.1777515435   -4.5938032538
S       -1.3976009886   -1.3154421361   -3.3499385639
Br      -0.9529202917   -3.2543384514   -0.8961114089
H        0.5590184452   -0.5169394164   -0.3933480997
H        2.5821030394    0.9091117848   -1.1814077558
H        2.3457531873    2.6534665922   -0.6888041833
H        2.0739353227    3.2836388242   -3.1396604104
H        2.3044977699    1.5264478077   -3.6002559214
H        0.0927205259    2.6772207645   -1.7548426181
H       -0.8236157821    0.6467757492   -5.5430454570
H       -1.9679922670    1.5863920443   -4.5764597723
H       -0.2518174162    2.0172372654   -4.5783241959
19   
torsion grid (90,)
C        0.2175681781   -0.7593914913   -1.5632949831
C        0.1614897979    0.4140339120   -2.3953812359
C       -0.5225183042    0.2008049183   -3.5717821763
C       -0.4130915003   -1.8304020275   -2.1273564553
C        2.2441420451    1.7484137606   -1.5827012873
C        1.8066239576    2.3973799965   -2.8760250119
C        0.7833892175    1.7121595123   -1.9921117092
C       -0.8005358238    1.1635621011   -4.6901217190
S       -1.0998456088   -1.4484974380   -3.6795837446
Br      -0.5780035508   -3.5725794400   -1.4003484555
H        0.7097193411   -0.7900550405   -0.5975380481
H        2.8032046342    0.8202644181   -1.6566442614
H        2.5295869109    2.3870423292   -0.7520934814
H        1.7881513972    3.4821334024   -2.9308512000
H        2.0799426852    1.9005944847   -3.8020654191
H        0.1333364167    2.3782168122   -1.4267710357
H       -0.2332618861    0.9105744730   -5.5937292194
H       -1.8621380919    1.1730497193   -4.9586686917
H       -0.5207619862    2.1742435089   -4.3878264802
19   
torsion grid (105,)
C        0.6314409133   -1.0275059252   -2.0270446760
C        0.4220519892    0.2535229279   -2.6517868778
C       -0.1879974116    0.1515227769   -3.8823773585
C        0.1823770257   -2.0635279257   -2.7929630655
C        2.3499073713    1.7609598061   -1.7686033952
C        1.5941861367    2.6056350155   -2.7677113905
C        0.8660131162    1.5225905662   -2.0003676674
C       -0.5945605214    1.2365788299   -4.8396871064
S       -0.5098310530   -1.5205981875   -4.2934480475
Br       0.2636327315   -3.9109169597   -2.3780164181
H        1.1049799507   -1.1551591268   -1.0597504177
H        3.0390355910    1.0187508946   -2.1604942784
H        2.6525945240    2.2142625989   -0.8292334109
H        1.3816048717    3.6408096286   -2.5166760665
H        1.7968445510    2.4288814078   -3.8190214423
H        0.2302957737    1.8608035546   -1.1833700613
H        0.1384000341    1.3642012228   -5.6455262278
H       -1.5599757349    1.0155923205   -5.3054425133
H       -0.6865990701    2.1882102894   -4.3131456796
19   
torsion grid (120,)
C       -0.0629598959   -0.6138470940   -1.3785024010
C        0.0536238287    0.4926152250   -2.2948463238
C       -0.5132976612    0.2253131575   -3.5218143483
C       -0.7076228627   -1.6843625426   -1.9253710379
C        2.3063678769    1.7150671189   -1.8433940319
C        1.5888720439    2.5762772216   -2.8554815694
C        0.7829734006    1.7319622973   -1.8934555878
C       -0.6448323776    1.0998030524   -4.7388504468
S       -1.1951318927   -1.3885676373   -3.5672592352
Br      -1.0719847991   -3.3465904755   -1.0912752399
H        0.3302724939   -0.6015370615   -0.3676882226
H        2.8025116238    0.8214295817   -2.2099795868
H        2.7939132508    2.1961051530   -1.0004358173
H        1.5838561107    3.6526114605   -2.7101030743
H        1.6423587363    2.2646745336   -3.8922473866
H        0.3337474631    2.2613499355   -1.0546721951
H        0.2084636895    0.9875408800   -5.4185264344
H       -1.5477258275    0.8532938816   -5.3054149855
H       -0.7109948116    2.1503274136   -4.4486622535
19   
torsion grid (135,)
C       -0.0717521911   -0.6696607585   -1.4087667654
C        0.0888925055    0.4408766695   -2.3145154332
C       -0.4311846777    0.1796041689   -3.5641973841
C       -0.7012894423   -1.7351570935   -1.9821641883
C        2.3470140367    1.7128029019   -2.0230964160
C        1.4618349315    2.6840051867   -2.7657059147
C        0.8300132647    1.6525205210   -1.8575456540
C       -0.5214163879    1.0463609220   -4.7920479968
S       -1.1204770694   -1.4304204111   -3.6392948959
Br      -1.1120138006   -3.3950103173   -1.1648500496
H        0.2797202796   -0.6629296403   -0.3824982576
H        2.8076627088    0.9158277210   -2.5989626730
H        2.9373901105    2.0744368133   -1.1862062607
H        1.4393311838    3.7185639434   -2.4357960606
H        1.3811690784    2.5588184007   -3.8380617834
H        0.4973682418    2.0225597033   -0.8896459800
H        0.4197944875    1.0627948589   -5.3540965213
H       -1.2978136186    0.6830401841   -5.4714843676
H       -0.7754372980    2.0742667411   -4.5227356910
19   
torsion grid (150,)
C       -0.0846544152   -0.7730383736   -1.4597444593
C        0.1588114363    0.3396434180   -2.3430838164
C       -0.3398906919    0.1196870949   -3.6109443221
C       -0.7503536790   -1.7992365167   -2.0650796214
C        2.3672364009    1.7544806556   -2.2608343687
C        1.2918639364    2.7539665522   -2.6109107324
C        0.9254150150    1.5108984962   -1.8263649981
C       -0.3414956440    0.9901415425   -4.8406882039
S       -1.1042670432   -1.4522868760   -3.7265679604
Br      -1.2702304100   -3.4436094073   -1.2796282638
H        0.2325649068   -0.7968513164   -0.4225206550
H        2.7453394449    1.1229409502   -3.0593830210
H        3.0961589268    2.0116674001   -1.4978371591
H        1.2731982421    3.6958224946   -2.0702678177
H        0.9940902946    2.8358576199   -3.6475785619
H        0.7512162061    1.6868991694   -0.7674435206
H        0.6741681312    1.2079815431   -5.1878201673
H       -0.8644334217    0.4991736092   -5.6661477610
H       -0.8499513549    1.9408337971   -4.6532966208
19   
torsion grid (165,)
C       -0.1582821268   -0.9774984353   -1.7090562161
C        0.2093104471    0.1613543074   -2.5109288633
C       -0.2297567538    0.0441063490   -3.8150234238
C       -0.8577917027   -1.9201154563   -2.4066194412
C        2.3017615480    1.7710496280   -2.4720559340
C        1.0963567434    2.6790993647   -2.4362358175
C        0.9911154403    1.2681473938   -1.8853230548
C       -0.1087837054    0.9809593919   -4.9887493469
S       -1.0908122681   -1.4604840321   -4.0612875485
Br      -1.5277195369   -3.5648518757   -1.7460994411
H        0.0967062198   -1.0813637878   -0.6597455598
H        2.6012902907    1.3572634291   -3.4301669038
H        3.1235728834    1.9668508370   -1.7895296604
H        1.0884924504    3.4894486371   -1.7131099517
H        0.5985377485    2.9135168415   -3.3686388292
H        0.9725134484    1.2216029190   -0.7997438890
H        0.9004571603    1.3917427270   -5.0763814740
H       -0.3266392373    0.4631949988   -5.9272590637
H       -0.8109822371    1.8184514334   -4.9092678982
19   
torsion grid (180,)
C       -0.5235461039   -0.9417068573   -1.9142257086
C        0.0478127221    0.1463243411   -2.6670642716
C       -0.3250190977    0.1124456699   -3.9967311250
C       -1.2959350448   -1.7714489028   -2.6744932899
C        2.0964741019    1.8369492990   -2.5959399651
C        0.8663467678    2.6375878838   -2.2421884234
C        0.9043328860    1.1436640378   -1.9598106317
C        0.0774654687    0.9706994871   -5.1672719992
S       -1.3638232739   -1.2591992612   -4.3291839137
Br      -2.2406261335   -3.3056185013   -2.0881772012
H       -0.3624482411   -1.0871425617   -0.8513828586
H        2.2943522680    1.6324236247   -3.6426102070
H        2.9883170246    1.9657812217   -1.9894801427
H        0.9161693155    3.3042200818   -1.3862511376
H        0.2218267581    2.9887981102   -3.0403790132
H        1.0225636270    0.9068242682   -0.9060909767
H        0.9591067702    0.5626500455   -5.6760377497
H       -0.7268537870    1.0322808869   -5.9069000024
H        0.3123044246    1.9907376000   -4.8621653372
