24   
torsion grid (-165,)
C        2.3713378698    3.6548978394   -1.3647866584
C        3.3053729659    2.8076994160   -1.8971865076
C        1.0929171761    3.0308133339   -1.1568838183
C        1.0965065521    1.7081578289   -1.5434413725
C       -0.3048787541    0.4353124411    1.1931652862
C        1.1254524424    0.0118798207    0.9241606300
C        0.0728942032   -0.1615696263   -0.1432293490
C       -0.0753082799    3.7792127291   -0.5645895140
C        0.0034401836    0.6807451616   -1.4291588153
N        0.0691698722   -0.2354415306   -2.5851076384
S        2.6575024460    1.2236948278   -2.1659636493
H        2.5716626905    4.6969482008   -1.1320054204
H        4.3302644268    3.0302740471   -2.1674332352
H       -0.9096396849   -0.1567362193    1.8742879260
H       -0.5043308582    1.5025928693    1.2271164309
H        1.8608482612    0.7971507457    0.7837079292
H        1.5027946002   -0.8816637140    1.4127633136
H       -0.2589014991   -1.1861815837   -0.2994744227
H       -0.1808681214    4.7639050311   -1.0327007410
H       -1.0186033793    3.2439292113   -0.6947563207
H        0.0642198704    3.9453701731    0.5103373290
H       -0.9508486049    1.2303413924   -1.4044703439
H       -0.0547134060    0.2947286366   -3.4465258160
H       -0.6976310412   -0.9042537037   -2.5332094460
24   
torsion grid (-150,)
C        2.4952022260    3.6657958843   -1.4253702178
C        3.3964740264    2.7935795178   -1.9746336615
C        1.2078259640    3.0734216050   -1.1850961018
C        1.1700026914    1.7506238027   -1.5695250836
C       -0.4334107780    0.3679916773    1.1768200069
C        1.0704624871    0.2785465774    1.0314216740
C        0.1772402894   -0.1019603342   -0.1255974477
C        0.0759668210    3.8356936704   -0.5416874771
C        0.0569590699    0.7522688237   -1.4052060827
N        0.0492520692   -0.1631191589   -2.5633893942
S        2.7032162464    1.2250919896   -2.2214666690
H        2.7261040500    4.7037252322   -1.2029399016
H        4.4189390277    2.9905921125   -2.2723758124
H       -0.9440339603   -0.3561275951    1.8056993226
H       -0.8740663188    1.3617295134    1.1882164633
H        1.6277205858    1.2063619361    0.9483871704
H        1.5934851126   -0.5191542673    1.5505765087
H        0.1118926921   -1.1686189119   -0.3264846808
H        0.0646045544    4.8752907416   -0.8847489361
H       -0.8991321055    3.3981074206   -0.7705008517
H        0.1793284188    3.8545553138    0.5501734757
H       -0.8789518475    1.3276795262   -1.3338847373
H       -0.0939077969    0.3724874376   -3.4184984870
H       -0.7356818262   -0.8079951339   -2.4805463099
24   
torsion grid (-135,)
C        2.4502303078    3.5839060360   -1.5350599352
C        3.3213754584    2.7106615659   -2.1302621084
C        1.1721214842    2.9968052738   -1.2414240781
C        1.1106932050    1.6762274554   -1.6313237662
C       -0.5781253729    0.0062229733    1.0808871829
C        0.9059773083    0.2845555529    1.0431340313
C        0.2054145869   -0.2202602779   -0.1967467291
C        0.0685184010    3.7566299134   -0.5465179696
C       -0.0047885492    0.6873803841   -1.4249497592
N       -0.0987607469   -0.1828319169   -2.6137086604
S        2.6074598636    1.1486980543   -2.3582263442
H        2.6969396378    4.6190245860   -1.3167065815
H        4.3309202505    2.9036546697   -2.4713666110
H       -0.9336164998   -0.8583652583    1.6349647471
H       -1.2493438404    0.8614403194    1.1052318064
H        1.2347292040    1.3191781077    1.0430289666
H        1.5727683222   -0.3981495914    1.5613511928
H        0.4201692622   -1.2505184364   -0.4694264026
H        0.1129345027    4.8204557992   -0.7995254993
H       -0.9232778718    3.3900141929   -0.8252000519
H        0.1507391396    3.6777496809    0.5446098689
H       -0.9226187173    1.2726041938   -1.2615109865
H       -0.3110894451    0.3825564795   -3.4346097019
H       -0.8709021990   -0.8378213782   -2.4931305682
24   
torsion grid (-120,)
C        2.4828006021    3.4987552201   -1.7792203677
C        3.2914597672    2.5911824114   -2.4086807328
C        1.1973243553    2.9624968216   -1.4232939415
C        1.0661519266    1.6444338671   -1.8026238881
C       -0.7097504356   -0.2746458528    0.8403172571
C        0.6778100580    0.3104308747    0.9465587173
C        0.2031717743   -0.2535236173   -0.3716010070
C        0.1608132896    3.7829771576   -0.6957117864
C       -0.0720422665    0.6886342134   -1.5504085172
N       -0.2652838877   -0.1417963446   -2.7550802160
S        2.5069380207    1.0583327292   -2.5992760879
H        2.7786374648    4.5244951886   -1.5776656465
H        4.2916757752    2.7436483735   -2.7949266812
H       -0.9127082338   -1.2277403736    1.3212133374
H       -1.5496981560    0.4160670368    0.8433843686
H        0.7719820687    1.3893624896    1.0227324606
H        1.4338913222   -0.2435378489    1.4946951094
H        0.6512733149   -1.1950716880   -0.6789973034
H        0.0777682024    4.7822234779   -1.1365081311
H       -0.8296726479    3.3228003226   -0.7266206178
H        0.4279860028    3.9168081867    0.3596369049
H       -0.9565783215    1.2953691105   -1.3032368794
H       -0.5143432616    0.4514212793   -3.5454346418
H       -1.0427350751   -0.7839730328   -2.6023419252
24   
torsion grid (-105,)
C        2.5348339672    3.5082160510   -1.8475614143
C        3.2996692297    2.5942517637   -2.5210003631
C        1.2632526126    2.9857019801   -1.4275380187
C        1.0969296566    1.6707939729   -1.8035947743
C       -0.7359392174   -0.4472591262    0.7617372158
C        0.4856134851    0.3976317204    1.0443155488
C        0.2889279090   -0.1970970755   -0.3282031396
C        0.2743474172    3.8190137501   -0.6502339796
C       -0.0375889944    0.7244660343   -1.4999144291
N       -0.2881139208   -0.1149817594   -2.6859715546
S        2.4878992536    1.0719735626   -2.6773375272
H        2.8525382619    4.5296857819   -1.6578350414
H        4.2807612156    2.7364875950   -2.9569747292
H       -0.7940029130   -1.4398186479    1.1997974739
H       -1.6932332022    0.0620271331    0.6781455161
H        0.3465862259    1.4691422592    1.1519647764
H        1.2681172628   -0.0161784278    1.6729674483
H        0.9428476779   -1.0216266471   -0.6008363747
H        0.1764290019    4.8166013539   -1.0919583479
H       -0.7204197261    3.3676214601   -0.6255489748
H        0.5999301148    3.9559525309    0.3879705829
H       -0.9073191309    1.3369317568   -1.2135991568
H       -0.5772104608    0.4682314059   -3.4699502411
H       -1.0510424446   -0.7617281683   -2.4880601974
24   
torsion grid (-90,)
C        2.5473832263    3.4769647342   -1.9625078028
C        3.2541977968    2.5685703039   -2.7039538087
C        1.2986346678    2.9616299763   -1.4725717130
C        1.0897088028    1.6578921151   -1.8656621183
C       -0.7846075758   -0.6199721298    0.6216634430
C        0.2191328926    0.4181566095    1.0818568089
C        0.3126994493   -0.1490466289   -0.3112286845
C        0.3723893297    3.7851409505   -0.6125958661
C       -0.0371068844    0.7216947152   -1.5091294161
N       -0.3165286389   -0.1611082491   -2.6548907244
S        2.4137812774    1.0598877903   -2.8386381058
H        2.8912559710    4.4896366633   -1.7712843981
H        4.2071366563    2.7079257185   -3.1992371334
H       -0.7191179701   -1.6226181089    1.0343208501
H       -1.7991600455   -0.2825827863    0.4218642287
H       -0.1278523838    1.4411997366    1.1919879841
H        0.9727654983    0.1215058853    1.8049603886
H        1.1271456942   -0.8422759547   -0.5060870386
H        0.3174345099    4.8156438104   -0.9792085151
H       -0.6438340094    3.3829761084   -0.5968658817
H        0.7259740795    3.8272171038    0.4244597309
H       -0.9039096144    1.3414333330   -1.2255740604
H       -0.6419151608    0.3877893628   -3.4491730803
H       -1.0577106480   -0.8143687272   -2.4055318216
24   
torsion grid (-75,)
C        2.5722455348    3.4470700129   -2.0637395001
C        3.2113309095    2.5425299396   -2.8695390736
C        1.3491306777    2.9433169082   -1.5041606498
C        1.0899573516    1.6532077551   -1.9117394102
C       -0.7678589511   -0.7416825388    0.5406761976
C       -0.0369889947    0.4547363905    1.1241831616
C        0.3278108152   -0.0537462826   -0.2457647323
C        0.4960850951    3.7487707678   -0.5562771530
C       -0.0315162992    0.7369123629   -1.4952926275
N       -0.3313945903   -0.2086211558   -2.5825234917
S        2.3367242122    1.0509670275   -2.9776415398
H        2.9478238619    4.4486037182   -1.8737281447
H        4.1323103277    2.6756679525   -3.4234639369
H       -0.5667688143   -1.7251013684    0.9549951177
H       -1.7978042330   -0.5882675597    0.2261002345
H       -0.5839169316    1.3908079411    1.1911082212
H        0.6636215302    0.2865632535    1.9365704821
H        1.2671644363   -0.5941120888   -0.3327396700
H        0.5375506505    4.8137485676   -0.8062362975
H       -0.5527195369    3.4398079070   -0.5848010356
H        0.8409321330    3.6400378804    0.4786812668
H       -0.8978588509    1.3718875000   -1.2411554292
H       -0.6969698028    0.2898454368   -3.3920372938
H       -1.0428437583   -0.8677546410   -2.2730577810
24   
torsion grid (-60,)
C        3.2890383457    2.6453357825   -1.7391445267
C        3.2281245742    2.2739577340   -3.0565768035
C        2.1378388087    2.2402014412   -0.9829696406
C        1.2219382013    1.5680758937   -1.7619129483
C       -0.9629131574   -1.3017871701   -0.2262652882
C        0.1093360135   -0.7697107415    0.7109746833
C        0.1881376140   -0.4806614143   -0.7647712583
C        1.9932393532    2.4917534138    0.4970840206
C       -0.0644675872    0.9129353740   -1.3340614679
N       -0.9924016349    0.8233962112   -2.4721591220
S        1.7626250559    1.4216090665   -3.4153445711
H        4.1209879341    3.1977237381   -1.3114805055
H        3.9498366024    2.4700951725   -3.8397469997
H       -0.9835659973   -2.3646592731   -0.4465677799
H       -1.9448393916   -0.8387679633   -0.1588051514
H       -0.1693438421    0.0457269627    1.3731126613
H        0.8221432254   -1.4696152323    1.1370028050
H        0.9309555155   -1.0434738755   -1.3245063050
H        0.9478809097    2.6382841644    0.7855758114
H        2.3758524587    1.6481298841    1.0832840837
H        2.5516241157    3.3839109454    0.7969404274
H       -0.4817691433    1.5247319759   -0.5147694588
H       -1.2888966505    1.7550476815   -2.7569022710
H       -1.8206554937    0.2997456209   -2.2003659115
24   
torsion grid (-45,)
C        3.3131240274    2.6318271818   -1.7933369687
C        3.2058449768    2.2565868805   -3.1067881554
C        2.1801885622    2.2456189387   -1.0005439103
C        1.2313730504    1.5843708656   -1.7486129483
C       -0.8984292783   -1.4060648251   -0.3724425889
C       -0.0991494103   -0.7818691682    0.7592303851
C        0.2226740137   -0.4359806834   -0.6721104657
C        2.0828742466    2.4982492134    0.4831963046
C       -0.0481040236    0.9497860804   -1.2730021968
N       -1.0116213528    0.8620998168   -2.3821708949
S        1.7184102705    1.4225838081   -3.4167194716
H        4.1654498498    3.1743070375   -1.3940546140
H        3.9050612166    2.4404828110   -3.9129962007
H       -0.7417973681   -2.4536058112   -0.6103962878
H       -1.9283034384   -1.0756539330   -0.4822077766
H       -0.5993070038   -0.0246864742    1.3580427598
H        0.6005008477   -1.4015374184    1.3126729241
H        1.1151845844   -0.9058907087   -1.0764772799
H        1.0487115340    2.6605019531    0.8019672731
H        2.4678866920    1.6475861703    1.0578459361
H        2.6643165221    3.3805881537    0.7677463761
H       -0.4328413972    1.5854668065   -0.4567782600
H       -1.3016920818    1.7974384922   -2.6616052277
H       -1.8413903781    0.3560606593   -2.0855670959
24   
torsion grid (-30,)
C        3.3082935645    2.5822771369   -1.8579447590
C        3.1587616073    2.1571424457   -3.1517422775
C        2.1860158578    2.2582083302   -1.0226726149
C        1.2020045339    1.5930659715   -1.7202602906
C       -0.8774771274   -1.4733521483   -0.5413719699
C       -0.4057298828   -0.8135965232    0.7388675972
C        0.1761247169   -0.3892297338   -0.5898884133
C        2.1366105926    2.5729358738    0.4515766086
C       -0.0799481283    1.0076420371   -1.1895959757
N       -1.0804543172    0.9656953503   -2.2706683171
S        1.6428792525    1.3522859565   -3.3922917383
H        4.1834205856    3.1185286385   -1.5019169460
H        3.8417548253    2.2909684726   -3.9814144006
H       -0.5631979233   -2.4904172463   -0.7552373041
H       -1.8866075470   -1.2496971092   -0.8746283337
H       -1.0953905076   -0.1250940744    1.2220457819
H        0.2191421700   -1.3770525834    1.4260076802
H        1.1771459240   -0.7587069232   -0.7917517545
H        1.1131428060    2.7408247855    0.7995775223
H        2.5501323736    1.7510100240    1.0482610485
H        2.7201079525    3.4706426100    0.6782310733
H       -0.4060751543    1.6602682160   -0.3631806615
H       -1.3062802468    1.9179160437   -2.5544342850
H       -1.9422717306    0.5417198060   -1.9368604630
24   
torsion grid (-15,)
C        3.3085207238    2.5632736300   -1.9312980362
C        3.1081433084    2.0836104273   -3.1988711902
C        2.2217175241    2.2741345367   -1.0381260939
C        1.2115932253    1.5792134592   -1.6665545458
C       -0.7038342097   -1.5674189697   -0.6904318652
C       -0.6002196199   -0.9171252334    0.6688724784
C        0.2293162621   -0.3948352733   -0.4888570715
C        2.2325739296    2.6550954893    0.4215599742
C       -0.0464736315    1.0115499320   -1.0608923149
N       -1.1000077722    0.9961530732   -2.0930944303
S        1.5860999319    1.2685130353   -3.3434951104
H        4.1954913583    3.1155954569   -1.6341395308
H        3.7566667599    2.1831019726   -4.0604160613
H       -0.2530765415   -2.5457003337   -0.8304423900
H       -1.6066199793   -1.4193345210   -1.2735893899
H       -1.4348807214   -0.3008706944    0.9970276992
H       -0.1003812718   -1.4535979947    1.4705379649
H        1.2856862475   -0.6420005751   -0.4560735059
H        1.2256860256    2.8520618984    0.8010964166
H        2.6614580040    1.8569962782    1.0396774483
H        2.8338195709    3.5549108329    0.5840098986
H       -0.3119604005    1.6617166116   -0.2125533597
H       -1.2849893289    1.9554230004   -2.3843289703
H       -1.9708570219    0.6436366286   -1.6991088291
24   
torsion grid (0,)
C        2.1451934225    3.3407228683   -2.8672561047
C        3.1798334539    2.4575865708   -3.0254614082
C        0.8863861242    2.6984717843   -2.6068905956
C        1.0047656943    1.3260804946   -2.5806094199
C        0.2567706125   -1.4345281381   -0.2317301788
C       -1.1346990068   -0.8523154687   -0.1443744268
C       -0.0051772598   -0.0404944037   -0.7517785782
C       -0.3833574128    3.4727392614   -2.3535890357
C       -0.0447898930    0.2942396688   -2.2531895471
N        0.2008345085   -0.8977707303   -3.0876215734
S        2.6511548131    0.8154404371   -2.8670850578
H        2.2619558882    4.4182033305   -2.9417171372
H        4.2164053392    2.6771850620   -3.2492931871
H        0.8316265993   -1.5280768265    0.6851683977
H        0.4525946141   -2.2137362284   -0.9600530090
H       -1.8911383216   -1.2460763331   -0.8207601451
H       -1.5201722652   -0.5623119271    0.8290622624
H        0.3662996369    0.7789049184   -0.1438436302
H       -0.4177618040    4.3748701456   -2.9727593968
H       -1.2769796516    2.8825305936   -2.5729709208
H       -0.4522788926    3.7925102533   -1.3065909013
H       -1.0243795339    0.7530871567   -2.4570845841
H        0.1543380362   -0.6225748655   -4.0679816906
H       -0.5439284531   -1.5805583811   -2.9476550113
24   
torsion grid (15,)
C        2.1871975980    3.2859683401   -2.8556529510
C        3.1880865977    2.3598984544   -2.9823577977
C        0.8987376545    2.6991080431   -2.6102659546
C        0.9608772662    1.3234671613   -2.5623709631
C        0.4087454307   -1.3230562174   -0.2303950091
C       -1.0755543501   -1.0287431119   -0.1848794869
C       -0.1101066014   -0.0032956720   -0.7468863637
C       -0.3428104922    3.5286425859   -2.3942467240
C       -0.1351627303    0.3386746839   -2.2417296037
N        0.0552944454   -0.8632714608   -3.0749721513
S        2.5902381392    0.7431734867   -2.8119696142
H        2.3489584558    4.3566736581   -2.9424033772
H        4.2367927827    2.5343163080   -3.1886506605
H        0.9613096868   -1.3179712359    0.7047215916
H        0.7653329304   -2.0342754452   -0.9672098506
H       -1.7186185404   -1.5671304948   -0.8779549376
H       -1.5384416550   -0.8281940326    0.7772771529
H        0.0684486074    0.8678267684   -0.1225361947
H       -0.3275889344    4.4214274586   -3.0275508920
H       -1.2556702465    2.9725920624   -2.6233477391
H       -0.4189706755    3.8681123849   -1.3539304172
H       -1.0943618535    0.8410965730   -2.4420256769
H        0.0555900931   -0.5853995068   -4.0551594424
H       -0.7332618012   -1.4985490527   -2.9556355801
24   
torsion grid (30,)
C        2.2179772734    3.2215431815   -2.8253212200
C        3.1860264188    2.2599408752   -2.9410095809
C        0.9061819405    2.6821135278   -2.5958344622
C        0.9166782568    1.3050723003   -2.5469561690
C        0.5208448011   -1.1702315247   -0.2062928502
C       -0.9955376832   -1.1693883892   -0.2105938131
C       -0.2274539234    0.0192791432   -0.7519947497
C       -0.3065242176    3.5569856235   -2.3955873681
C       -0.2200664226    0.3620057124   -2.2434521181
N       -0.0750602362   -0.8499277419   -3.0698720754
S        2.5276971022    0.6665916998   -2.7752020012
H        2.4196995634    4.2855962107   -2.9098890921
H        4.2427636652    2.3957435905   -3.1348070107
H        1.0360648960   -1.0567721415    0.7430744716
H        1.0164984011   -1.8089165610   -0.9293851408
H       -1.4921098368   -1.8390994709   -0.9079110600
H       -1.5201893585   -1.0495102888    0.7331143479
H       -0.2395837483    0.9084641961   -0.1264032184
H       -0.2501136224    4.4485000172   -3.0283333404
H       -1.2362745955    3.0351733393   -2.6369631728
H       -0.3832618427    3.8992545811   -1.3562440396
H       -1.1564909498    0.9015116407   -2.4560478199
H        0.0042940894   -0.5761526447   -4.0475952288
H       -0.9143306306   -1.4223341115   -2.9946020292
24   
torsion grid (45,)
C        2.2428413811    3.1654361271   -2.8110884147
C        3.1780966268    2.1788310018   -2.9745056066
C        0.9184039358    2.6600607714   -2.5778992092
C        0.8852032117    1.2824784400   -2.5728782676
C        0.5841238245   -0.9623037310   -0.1705844554
C       -0.9016863418   -1.2593160295   -0.2562974428
C       -0.3482968843    0.0425974325   -0.7957291845
C       -0.2629839852    3.5651038204   -2.3308284333
C       -0.2823543849    0.3727027221   -2.2886924401
N       -0.1681413622   -0.8535462671   -3.0969907056
S        2.4723842260    0.6024553451   -2.8465562804
H        2.4768615752    4.2249206419   -2.8636367404
H        4.2357775967    2.2871132294   -3.1799298357
H        1.0155783566   -0.7280891573    0.7981040271
H        1.2281598205   -1.5192239700   -0.8430855520
H       -1.2050396504   -2.0340846807   -0.9538753115
H       -1.4973324703   -1.2183568119    0.6514048547
H       -0.5597068104    0.9239359926   -0.1942068710
H       -0.1894044463    4.4737389702   -2.9369086503
H       -1.2122167558    3.0793123937   -2.5719434664
H       -0.3121359010    3.8769698439   -1.2803453848
H       -1.1962413027    0.9381970268   -2.5313609423
H       -0.0337277412   -0.5987024176   -4.0738040930
H       -1.0397248218   -1.3771947149   -3.0465921803
24   
torsion grid (60,)
C        2.2737179228    3.1061994819   -2.8017983668
C        3.1702106369    2.1038834823   -3.0596700588
C        0.9415453763    2.6277595357   -2.5575993915
C        0.8623903398    1.2548323006   -2.6396098275
C        0.5795346603   -0.7015070285   -0.1270337583
C       -0.7972278426   -1.3070783916   -0.3250884345
C       -0.4757108229    0.0632838423   -0.8834132279
C       -0.2028188842    3.5473069921   -2.2112235684
C       -0.3307229381    0.3716598497   -2.3791704296
N       -0.2262516754   -0.8679435798   -3.1661841639
S        2.4164062743    0.5450999213   -3.0095980241
H        2.5411093018    4.1590761304   -2.7933015542
H        4.2240872872    2.1919304983   -3.2923703319
H        0.8615029390   -0.3470814405    0.8599948273
H        1.3866916058   -1.1372732356   -0.7070129680
H       -0.8585239879   -2.1468614367   -1.0095282803
H       -1.4750383437   -1.3622459209    0.5223600875
H       -0.9108570899    0.8985700680   -0.3390303220
H       -0.1218327262    4.4928889046   -2.7568872421
H       -1.1733015716    3.1048321649   -2.4522779782
H       -0.2091195313    3.7872544374   -1.1409661633
H       -1.2226241093    0.9534479777   -2.6634685206
H       -0.1037811189   -0.6335378706   -4.1499088543
H       -1.0980040874   -1.3880007023   -3.0906153069
24   
torsion grid (75,)
C        2.0801120968    2.9173945114   -2.6566090099
C        2.9264680410    1.9042259910   -3.0217350378
C        0.7646468549    2.4597594565   -2.3078491559
C        0.6460663378    1.0925453024   -2.4215709375
C        0.5030048902   -0.4552680512    0.2716467435
C       -0.6708322712   -1.3888233679    0.0651055787
C       -0.6703487035   -0.0099885176   -0.5658244069
C       -0.3277819963    3.3815103213   -1.8268196745
C       -0.5458867785    0.2345932455   -2.0814098213
N       -0.4755416898   -1.0372020592   -2.8192671939
S        2.1427987971    0.3605857279   -2.9473779102
H        2.3726455244    3.9634979156   -2.6413106619
H        3.9575865272    1.9767329533   -3.3443030417
H        0.6421013546    0.0084635129    1.2438537771
H        1.4213174170   -0.7010357381   -0.2521363089
H       -0.4969119249   -2.2421978414   -0.5817534950
H       -1.3527005627   -1.5695462157    0.8916653014
H       -1.3184530427    0.7175856424   -0.0831442248
H       -0.2093853760    4.3829597454   -2.2519163802
H       -1.3216869810    3.0165934689   -2.1032572787
H       -0.3095907158    3.4832761729   -0.7348969569
H       -1.4393798646    0.8136659736   -2.3664107666
H       -0.4600586054   -0.8479485213   -3.8203425583
H       -1.3149474096   -1.5809997347   -2.6290471920
24   
torsion grid (90,)
C        2.2052352133    2.7978161045   -2.6381264252
C        2.9871472124    1.7654730364   -3.0865694945
C        0.8761843495    2.3884514863   -2.2846980452
C        0.6815401984    1.0397439114   -2.4814087829
C        0.4591733745   -0.1838877024    0.2868050778
C       -0.4271148417   -1.3679909582   -0.0126829496
C       -0.7206882356   -0.0168904359   -0.6431880243
C       -0.1600594095    3.3203364159   -1.7091077205
C       -0.5495817414    0.2310749219   -2.1577500327
N       -0.5066849398   -1.0412415122   -2.8991642488
S        2.1230960818    0.2629889360   -3.0862793124
H        2.5548981122    3.8237045906   -2.5642869469
H        4.0136814247    1.8033757002   -3.4290013624
H        0.4026410604    0.2805617456    1.2672501791
H        1.4474925693   -0.1766584764   -0.1619003786
H       -0.0133682859   -2.1337597310   -0.6602801614
H       -1.1019820226   -1.7294604422    0.7585253353
H       -1.5669182778    0.5155586769   -0.2165232535
H        0.0664682495    4.3612512341   -1.9582615167
H       -1.1633027615    3.0969180407   -2.0869602117
H       -0.2001948621    3.2407740708   -0.6161071120
H       -1.4145332230    0.8448655944   -2.4569854086
H       -0.5616935905   -0.8551382432   -3.8997040336
H       -1.3190844945   -1.6026729223   -2.6504352989
24   
torsion grid (105,)
C        2.7412784754    2.5640664558   -2.5928126056
C        3.4370765169    1.4809801088   -3.0648736465
C        1.3653615356    2.2723010768   -2.3117151001
C        1.0492555321    0.9604087787   -2.5864472393
C        0.5956596192   -0.0956222563    0.1682694249
C       -0.0020502854   -1.3979495317   -0.2950603406
C       -0.5114890551   -0.0834530244   -0.8642527558
C        0.3973319831    3.2683533467   -1.7254352873
C       -0.2636174666    0.2588590498   -2.3484353470
N       -0.3016303406   -0.9664163242   -3.1691184553
S        2.4304641923    0.0747358856   -3.1789332174
H        3.1861503351    3.5450623465   -2.4515900610
H        4.4760681641    1.4338535598   -3.3663265298
H        0.3553622493    0.2601799195    1.1664078320
H        1.5967530341    0.1500475084   -0.1714382396
H        0.5986474270   -2.0125635917   -0.9574460114
H       -0.6480964004   -1.9473695385    0.3842372382
H       -1.4852670382    0.2365331449   -0.5011110898
H       -0.5806427301    3.2227086728   -2.2168436669
H        0.2316079000    3.0775953270   -0.6584174782
H        0.7749925882    4.2898115358   -1.8278804055
H       -1.0569769962    0.9695520628   -2.6298632201
H       -0.3959192852   -0.7200879333   -4.1536108539
H       -1.1165902049   -1.5212885642   -2.9135695886
24   
torsion grid (120,)
C        2.7445624611    2.4974931057   -2.5756626274
C        3.4099502871    1.3939446128   -3.0446356706
C        1.3599752021    2.2459487286   -2.2986441383
C        1.0080807504    0.9420849571   -2.5719708597
C        0.4720592831    0.0434433579    0.2108022975
C        0.2066349457   -1.3389098483   -0.3267028957
C       -0.5563471015   -0.1508473280   -0.8834658084
C        0.4204659507    3.2735548734   -1.7205584400
C       -0.3233842239    0.2761091402   -2.3421112852
N       -0.4187093560   -0.9072347468   -3.2191025104
S        2.3636233427    0.0185369245   -3.1654959265
H        3.2166917882    3.4657728640   -2.4353228113
H        4.4477982296    1.3176470847   -3.3441617105
H        0.1068064412    0.2934769692    1.2031114463
H        1.4098039418    0.5172574307   -0.0616393413
H        0.9599594013   -1.7781069897   -0.9726738629
H       -0.3302957809   -2.0481883749    0.2968878635
H       -1.5962087073   -0.0727922357   -0.5721012231
H       -0.5579320090    3.2517664038   -2.2122869974
H        0.2475680512    3.0970163354   -0.6522215656
H        0.8277630680    4.2827239054   -1.8312574925
H       -1.0969682306    1.0272470191   -2.5694479327
H       -0.5548912544   -0.6142219994   -4.1857070478
H       -1.2263122464   -1.4675069535   -2.9520266354
24   
torsion grid (135,)
C        2.8206225917    2.4729595360   -2.5618520132
C        3.4572371917    1.3599113776   -3.0474718446
C        1.4315492948    2.2516406952   -2.2807293350
C        1.0477161349    0.9579957080   -2.5636363995
C        0.3585978734    0.1586760017    0.2394153709
C        0.3761371697   -1.2412896797   -0.3298827075
C       -0.5357322870   -0.1936240753   -0.9286662451
C        0.5188192694    3.3061471480   -1.7068770673
C       -0.3016405227    0.3253201305   -2.3514025179
N       -0.4622751453   -0.7965501701   -3.2968308211
S        2.3775879474    0.0127612053   -3.1819627052
H        3.3158871801    3.4283737744   -2.4138817850
H        4.4915844952    1.2626786731   -3.3530228126
H       -0.1130122035    0.3207680617    1.2045761677
H        1.2230741160    0.7841670882    0.0411758962
H        1.2433958036   -1.5324286599   -0.9132194018
H       -0.0752337727   -2.0444925655    0.2453821701
H       -1.5933498672   -0.3012004948   -0.6912080788
H       -0.4660908382    3.2946304206   -2.1853273153
H        0.3557318211    3.1548020134   -0.6333143863
H        0.9444930850    4.3046644895   -1.8420297272
H       -1.0502280525    1.1183319751   -2.5146981261
H       -0.5902592580   -0.4396949309   -4.2427685514
H       -1.2948714439   -1.3321289707   -3.0570592497
24   
torsion grid (150,)
C        2.8229425619    2.4781945224   -2.4408669406
C        3.4414682043    1.3765399449   -2.9692480664
C        1.4368583411    2.2568677621   -2.1361895748
C        1.0388440422    0.9738294607   -2.4440413574
C        0.1538163204    0.2525038088    0.3789611386
C        0.5036876767   -1.1160866618   -0.1673378707
C       -0.5347342822   -0.2683041577   -0.8614347774
C        0.5601640936    3.3261676325   -1.5342182080
C       -0.3103674280    0.3309915070   -2.2500292289
N       -0.4855408193   -0.7360254960   -3.2548570176
S        2.3529996327    0.0375791697   -3.1174782086
H        3.3269457157    3.4264266491   -2.2757972274
H        4.4699632630    1.2813223251   -3.2949807122
H       -0.4280930065    0.3156502535    1.2940397583
H        0.8959003592    1.0340875671    0.2544638191
H        1.4668715924   -1.2270489899   -0.6537037877
H        0.1643124656   -1.9949315342    0.3731162020
H       -1.5675952640   -0.5847811448   -0.7158390795
H       -0.4894784569    3.0269201864   -1.4996451686
H        0.8667727785    3.5557105080   -0.5067632694
H        0.6296978788    4.2565402998   -2.1088393208
H       -1.0628959682    1.1283574454   -2.3641674474
H       -0.5937628645   -0.3258302855   -4.1813108204
H       -1.3350988594   -1.2610558653   -3.0544370647
24   
torsion grid (165,)
C        2.8511021196    2.4180167141   -2.4695631845
C        3.4421994449    1.3127012153   -3.0200970253
C        1.4679048891    2.2145840037   -2.1378762055
C        1.0452331656    0.9394179401   -2.4460025154
C        0.0113919989    0.2561494551    0.4074008027
C        0.6370459743   -1.0262353033   -0.1072341362
C       -0.4823993074   -0.3706296550   -0.8752540356
C        0.6212757340    3.3021093484   -1.5246307693
C       -0.3063979243    0.3104952695   -2.2328492859
N       -0.5524878161   -0.6866757897   -3.2932615484
S        2.3319509383   -0.0094067525   -3.1568029648
H        3.3717954087    3.3577646375   -2.3081565040
H        4.4620931117    1.2057853792   -3.3684867554
H       -0.6323731209    0.2112034198    1.2811400888
H        0.6137836121    1.1554626088    0.3323356373
H        1.6392898765   -0.9610158483   -0.5163081795
H        0.4182019410   -1.9554049061    0.4107852317
H       -1.4508239311   -0.8645758864   -0.7941904495
H       -0.4298850676    3.0158707559   -1.4515191735
H        0.9646435898    3.5473862700   -0.5126210661
H        0.6820215778    4.2216374540   -2.1176148004
H       -1.0469938413    1.1265858987   -2.2636358815
H       -0.6204571130   -0.2187709431   -4.1958978174
H       -1.4434737380   -1.1514962907   -3.1269062260
24   
torsion grid (180,)
C        2.8652178654    2.3511540806   -2.5134126397
C        3.4236768885    1.2400671149   -3.0852715174
C        1.4841978481    2.1717382698   -2.1570562306
C        1.0306866350    0.9082836039   -2.4688190228
C       -0.1684464644    0.2300507462    0.4235315891
C        0.7335802096   -0.8948793790   -0.0492049355
C       -0.4368857284   -0.4595073947   -0.8935051324
C        0.6743237728    3.2743620094   -1.5212718518
C       -0.3209527509    0.2936985604   -2.2232776196
N       -0.6408820189   -0.6415760530   -3.3199617292
S        2.2855860115   -0.0595955480   -3.2109808538
H        3.4070174564    3.2792191097   -2.3540584139
H        4.4337460733    1.1174203970   -3.4563774556
H       -0.8478965830    0.0461952283    1.2508304619
H        0.2471159626    1.2324126466    0.3938064287
H        1.7296298669   -0.6257394791   -0.3833196893
H        0.6665530845   -1.8577262322    0.4488201480
H       -1.2905574553   -1.1363158045   -0.8820008747
H       -0.3847452041    3.0195633702   -1.4451452023
H        1.0333303446    3.4963273635   -0.5093267299
H        0.7577699247    4.1993482887   -2.1028319405
H       -1.0458209973    1.1225501906   -2.1762427114
H       -0.6843764043   -0.1319351384   -4.2013024415
H       -1.5610912434   -1.0494506993   -3.1636448460
