20   
torsion grid (-165,)
C       -0.0443559796   -3.3562454716   -1.5852682063
C       -0.0929732244   -1.6674788339   -3.2857385192
C       -0.1221583416   -3.0134489808   -2.9317900656
C        0.0853737527   -1.1405078091   -1.0846784329
C        0.0256937500    1.5398758996   -0.4284834091
C        1.9415059862    0.2296397271    1.0560467742
C       -0.5665513484   -0.6839782063    1.5995702127
N        0.0635881547   -2.4023418699   -0.6530328078
N        0.0164557008   -0.7214062494   -2.3448955915
F       -0.2272304596   -3.9699599151   -3.8762723094
S        0.4765396798    0.1332817797    0.2901482498
H       -0.0687275487   -4.3960650521   -1.2646127780
H       -0.1589709341   -1.3557804486   -4.3266258521
H        0.1360972076    2.4238173231    0.1854088767
H       -0.6760504589    1.4749588107   -1.2476968260
H        2.1449315604   -0.5620534299    1.7698633087
H        2.7433974670    0.6082256063    0.4320996230
H       -0.5898672177    0.0302278576    2.4239547511
H       -1.5626095325   -0.8169396734    1.1746820863
H       -0.1451091772   -1.6415030592    1.9054475164
20   
torsion grid (-150,)
C       -0.2875145686   -3.3314581625   -1.5988184957
C        0.1455723889   -1.6871354093   -3.2875109442
C       -0.1289691044   -3.0082190635   -2.9423367721
C        0.0687668611   -1.1438597550   -1.0834852833
C       -0.1052340045    1.5147303204   -0.3981727718
C        1.9528853973    0.3123129641    0.9792044318
C       -0.4729668079   -0.7313828941    1.6484014701
N       -0.1835381899   -2.3831542463   -0.6595061301
N        0.2527345110   -0.7484404415   -2.3411138872
F       -0.2338702630   -3.9589797584   -3.8926580569
S        0.4570252152    0.1332238825    0.2885185816
H       -0.4969766841   -4.3522782963   -1.2845457862
H        0.2821563480   -1.3918745660   -4.3264818352
H       -0.0087996956    2.4047396697    0.2093955798
H       -0.8414042756    1.4135013695   -1.1837158293
H        2.2377275129   -0.4651798176    1.6811567124
H        2.6984762643    0.7320229600    0.3131788262
H       -0.4855352450   -0.0117763024    2.4681772533
H       -1.4817343952   -0.9196725183    1.2805327153
H        0.0101777716   -1.6648019302    1.9379068226
20   
torsion grid (-135,)
C       -0.5295820603   -3.2695770372   -1.6422032811
C        0.3895476846   -1.7415247367   -3.2436549498
C       -0.1336082272   -2.9987902273   -2.9468026290
C        0.0639941864   -1.1472381953   -1.0762609238
C       -0.2160540533    1.4902315352   -0.3941056493
C        1.9526351760    0.4028992977    0.8955788705
C       -0.3758371853   -0.7776482349    1.6894999482
N       -0.4240500352   -2.3275545252   -0.6945101641
N        0.4972462518   -0.8116886450   -2.2904823861
F       -0.2414319503   -3.9407135486   -3.9055399928
S        0.4344283954    0.1387613076    0.2864374399
H       -0.9295411303   -4.2426323895   -1.3633334115
H        0.7282482827   -1.4942402285   -4.2483905211
H       -0.1638068253    2.3765473155    0.2263975644
H       -1.0332244596    1.3289621653   -1.0871120766
H        2.3173654506   -0.3604897088    1.5760228165
H        2.6356295469    0.8587727337    0.1877626541
H       -0.3396746157   -0.0797007541    2.5268411272
H       -1.4034676626   -0.9861664817    1.3948355307
H        0.1501622672   -1.7058916375    1.9171466348
20   
torsion grid (-120,)
C       -0.7405402863   -3.1759796163   -1.7080853926
C        0.5932381956   -1.8244900743   -3.1724462934
C       -0.1422982642   -2.9878089897   -2.9477121841
C        0.0741215672   -1.1510151316   -1.0679793602
C       -0.3190669855    1.4595206785   -0.3898940054
C        1.9435350698    0.4929263537    0.8285484129
C       -0.2802642338   -0.8235729340    1.7168745176
N       -0.6244612699   -2.2403466597   -0.7527810319
N        0.7080557416   -0.9025666231   -2.2130425798
F       -0.2581802661   -3.9211820302   -3.9137961541
S        0.4190017254    0.1447371491    0.2862762490
H       -1.3100112303   -4.0761544288   -1.4850704478
H        1.0938360491   -1.6485898363   -4.1230480065
H       -0.3003661082    2.3451514971    0.2355315338
H       -1.1892466794    1.2364421070   -0.9987320394
H        2.3796163856   -0.2540717965    1.4846147357
H        2.5671311635    0.9881962262    0.0932654476
H       -0.2214427202   -0.1433760583    2.5671091469
H       -1.3120387618   -1.0727843437    1.4759922528
H        0.2983599446   -1.7327174843    1.8925017999
20   
torsion grid (-105,)
C       -0.9181230237   -3.0559565436   -1.7899950378
C        0.7542373552   -1.9268938993   -3.0874395291
C       -0.1575183937   -2.9732893015   -2.9495023625
C        0.0957418300   -1.1579147745   -1.0577004640
C       -0.4168793922    1.4157588373   -0.3812672734
C        1.9288912577    0.5833012196    0.7806088069
C       -0.1833212092   -0.8688351139    1.7352636217
N       -0.7832919075   -2.1306271402   -0.8258774984
N        0.8836163220   -1.0137987040   -2.1210712124
F       -0.2890821824   -3.8969971144   -3.9228420102
S        0.4122616525    0.1479377285    0.2889095803
H       -1.6315827888   -3.8632850592   -1.6371292901
H        1.3788453079   -1.8361694724   -3.9743488116
H       -0.4314149279    2.3039245684    0.2419361787
H       -1.3096737511    1.1306709177   -0.9297773980
H        2.4295382312   -0.1413771108    1.4150973932
H        2.4975381216    1.1169323164    0.0281338444
H       -0.1319938384   -0.2008437789    2.5954108666
H       -1.2058876049   -1.1769224782    1.5258917170
H        0.4570779781   -1.7432970925    1.8738254797
20   
torsion grid (-90,)
C       -0.6099288088   -1.7663993890   -2.9959275658
C        0.5405806199   -3.4233343191   -1.6969067281
C       -0.1328263496   -3.0650518364   -2.8637751042
C        0.2566547460   -1.3023779882   -0.9479437269
C        2.0123943634    0.5300279376   -0.0275295317
C        0.6050158728   -0.5558770566    2.0705069275
C       -1.0816170716    0.7835629707    0.3796148017
N       -0.4135973556   -0.8708162109   -2.0149342697
N        0.7308752666   -2.5247836458   -0.7255297685
F       -0.3266448170   -3.9690188595   -3.8452473297
S        0.5622177242   -0.0932710516    0.4870121064
H       -1.1496466198   -1.4498000392   -3.8862363878
H        0.9201021567   -4.4332119737   -1.5520882914
H        2.3937428058    1.3187547865    0.6134799844
H        2.0877054913    0.6432897225   -1.1050853040
H       -0.3636465347   -0.7797438815    2.5059928292
H        1.4589034508   -1.1721217941    2.3259341110
H       -1.0321218089    1.5978157096    1.1029606203
H       -1.1883270982    1.1551284468   -0.6382213410
H       -1.8908569967    0.0895464765    0.6220505695
20   
torsion grid (-75,)
C       -0.4104823707   -1.7095502659   -3.0722481172
C        0.3490475680   -3.4657596526   -1.6248102479
C       -0.1226805853   -3.0552772613   -2.8694006365
C        0.2485082783   -1.3085077900   -0.9364744412
C        1.9611747709    0.6040483206   -0.1025963654
C        0.7038346555   -0.5373348258    2.0648082220
C       -1.1205698877    0.7049965527    0.4405557788
N       -0.2250691115   -0.8220485214   -2.0836948593
N        0.5332358311   -2.5730268830   -0.6450578522
F       -0.3075946712   -3.9511249610   -3.8600293571
S        0.5696321690   -0.0868482336    0.4848784349
H       -0.7922079366   -1.3508120892   -4.0261522637
H        0.5754182950   -4.5113252556   -1.4239800208
H        2.3345420417    1.4106580859    0.5203908776
H        1.9739398224    0.7213772792   -1.1815792229
H       -0.2329608499   -0.8067928467    2.5417980346
H        1.5967619041   -1.1097124943    2.2866406633
H       -1.0913573524    1.5345947744    1.1476932886
H       -1.2849513284    1.0538402185   -0.5786011249
H       -1.8792422059   -0.0290761463    0.7259858103
20   
torsion grid (-60,)
C       -0.1979266180   -1.6916182548   -3.1355151181
C        0.1328508437   -3.4756207627   -1.5664986091
C       -0.1240722656   -3.0559131920   -2.8681176117
C        0.2528199388   -1.2981969895   -0.9450165715
C        1.9107293779    0.7040425299   -0.1589791471
C        0.8036604009   -0.5311685751    2.0419945886
C       -1.1496402842    0.6201050610    0.5033205086
N       -0.0104795255   -0.7994798661   -2.1535712245
N        0.3220175810   -2.5765031462   -0.5918884258
F       -0.3113594539   -3.9564987006   -3.8539165359
S        0.5857099260   -0.0724076866    0.4750628563
H       -0.4117071897   -1.3232874921   -4.1371077655
H        0.1842976079   -4.5331661008   -1.3140447675
H        2.2533960902    1.5286366721    0.4578988366
H        1.8719941908    0.8327308207   -1.2353585699
H       -0.0977474303   -0.8569411687    2.5505708810
H        1.7343725697   -1.0554708971    2.2243329955
H       -1.1509332652    1.4433782977    1.2188469201
H       -1.3660433389    0.9719313507   -0.5060264419
H       -1.8529601189   -0.1622338952    0.8021398030
20   
torsion grid (-45,)
C        0.0221089038   -1.7136445357   -3.1841667831
C       -0.0997568476   -3.4423714555   -1.5263342554
C       -0.1344115704   -3.0597288212   -2.8631874369
C        0.2669069082   -1.2727857679   -0.9705517460
C        1.8568033021    0.8180809465   -0.1992561939
C        0.9030507132   -0.5311800288    2.0046053425
C       -1.1725315418    0.5259416990    0.5698017987
N        0.2206083118   -0.8068874756   -2.2187133696
N        0.1032758944   -2.5282101775   -0.5681820933
F       -0.3316256321   -3.9751743577   -3.8332134192
S        0.6034096002   -0.0504333218    0.4580665434
H       -0.0173586360   -1.3713204571   -4.2165921135
H       -0.2377067633   -4.4812025651   -1.2320486735
H        2.1630277381    1.6528598005    0.4225569856
H        1.7839977352    0.9566262524   -1.2719331132
H        0.0416740961   -0.9182021994    2.5384922620
H        1.8692207078   -1.0024701524    2.1427060175
H       -1.2040446196    1.3227563304    1.3143884995
H       -1.4439787570    0.9003137042   -0.4185432455
H       -1.8136905067   -0.3106494128    0.8602315949
20   
torsion grid (-30,)
C        0.2329417830   -1.7668510579   -3.2067842488
C       -0.3181792235   -3.3755599185   -1.5157801116
C       -0.1413965633   -3.0621780322   -2.8597460689
C        0.2741950465   -1.2450117115   -0.9979576000
C        1.7874180563    0.9246314414   -0.2341033666
C        0.9945891856   -0.5280506268    1.9646957073
C       -1.1888277868    0.4349216028    0.6372514755
N        0.4379798990   -0.8442076234   -2.2572384269
N       -0.1054485310   -2.4470411758   -0.5744139723
F       -0.3447448777   -3.9941095552   -3.8126303496
S        0.6127897848   -0.0309593177    0.4399147779
H        0.3619194389   -1.4761301807   -4.2476683852
H       -0.6324466669   -4.3697600203   -1.2035200121
H        2.0687183997    1.7609612249    0.3962967579
H        1.6964756843    1.0634845199   -1.3044443025
H        0.1760447448   -0.9705557103    2.5220353476
H        1.9899833286   -0.9470245094    2.0577597340
H       -1.2319881373    1.2179294491    1.3959589860
H       -1.5248742301    0.8098540491   -0.3312140293
H       -1.7661702982   -0.4420248428    0.9397146886
20   
torsion grid (-15,)
C        0.4229456327   -1.8417689301   -3.1996828161
C       -0.5038440800   -3.2972742932   -1.5338174418
C       -0.1348037569   -3.0699168299   -2.8564657404
C        0.2582985649   -1.2179010093   -1.0239380027
C        1.7000221071    1.0143870460   -0.2721453888
C        1.0774776402   -0.5273309282    1.9200488260
C       -1.1976492281    0.3689349899    0.7103683829
N        0.6179562296   -0.9013472244   -2.2649771031
N       -0.2988069943   -2.3530180175   -0.6074341902
F       -0.3271949508   -4.0205339601   -3.7930333048
S        0.6084928457   -0.0161052273    0.4216011052
H        0.7074773762   -1.6177995141   -4.2260521435
H       -0.9622800363   -4.2357311676   -1.2276919982
H        1.9761075222    1.8441932542    0.3678735771
H        1.5913082990    1.1529349247   -1.3399930942
H        0.3023233302   -1.0147712842    2.5017087271
H        2.0915320816   -0.9090055915    1.9590062201
H       -1.2304047216    1.1317051488    1.4899463207
H       -1.5905052186    0.7576545370   -0.2310468863
H       -1.7294736061   -0.5349879188    1.0138515521
20   
torsion grid (0,)
C        0.5925804699   -1.9269162013   -3.1677756585
C       -0.6641166097   -3.2125286375   -1.5803504203
C       -0.1250464327   -3.0779211067   -2.8568386934
C        0.2338778009   -1.1914170298   -1.0507786552
C        1.5995628410    1.0944132835   -0.3054165020
C        1.1530021658   -0.5302893654    1.8715042747
C       -1.2004250992    0.3160368798    0.7860135961
N        0.7729455456   -0.9709253838   -2.2460387136
N       -0.4732722670   -2.2538240947   -0.6667660887
F       -0.3032205910   -4.0452026294   -3.7790699333
S        0.5984550273   -0.0059466825    0.4049511487
H        1.0184984070   -1.7770455054   -4.1580964150
H       -1.2433102335   -4.0904780020   -1.3005328118
H        1.8878999375    1.9121732627    0.3430954955
H        1.4836378627    1.2266961713   -1.3723684130
H        0.4213175840   -1.0505479926    2.4806717060
H        2.1800853436   -0.8774499657    1.8576908382
H       -1.2092538265    1.0780408656    1.5669049455
H       -1.6521775993    0.6966208354   -0.1319595861
H       -1.6920612899   -0.6011706971    1.1132864873
20   
torsion grid (15,)
C        0.7475340932   -2.0226097063   -3.1106295425
C       -0.8124302049   -3.1169121208   -1.6555630658
C       -0.1210952308   -3.0815625048   -2.8631123996
C        0.2161834451   -1.1724520908   -1.0735072629
C        1.4897733853    1.1663298767   -0.3352094380
C        1.2286934588   -0.5203894366    1.8278259962
C       -1.1966409460    0.2596933682    0.8598689627
N        0.9193061123   -1.0589971959   -2.1965377507
N       -0.6317005190   -2.1495732761   -0.7491615666
F       -0.2921513224   -4.0573831674   -3.7777396169
S        0.5888113397    0.0001096054    0.3927300452
H        1.3030101046   -1.9542477948   -4.0442315651
H       -1.5036196075   -3.9249235977   -1.4232554307
H        1.7965433464    1.9754609947    0.3143038068
H        1.3704547807    1.2845967158   -1.4027588834
H        0.5458944511   -1.0727625257    2.4652026457
H        2.2672988648   -0.8254618674    1.7650150592
H       -1.1842462716    1.0421930992    1.6200292443
H       -1.7098008509    0.6027905870   -0.0401260451
H       -1.6428393923   -0.6615809580    1.2349834082
20   
torsion grid (30,)
C        0.8938734528   -2.1363145706   -3.0208025179
C       -0.9527091841   -3.0009400086   -1.7614168727
C       -0.1184468190   -3.0804964035   -2.8721552996
C        0.2059753238   -1.1608165001   -1.0884842293
C        1.3764997847    1.2296030175   -0.3681301016
C        1.3072214088   -0.4952137168    1.7809085799
C       -1.1888192480    0.1931285933    0.9351508564
N        1.0598906084   -1.1713248200   -2.1089145508
N       -0.7797146814   -2.0300151587   -0.8570871859
F       -0.2853112170   -4.0588110808   -3.7849678312
S        0.5780696800    0.0075591933    0.3814752493
H        1.5705902327   -2.1636263012   -3.8730984509
H       -1.7530407008   -3.7215178165   -1.6034368413
H        1.6961549752    2.0389271589    0.2742244565
H        1.2390830879    1.3345172464   -1.4348086066
H        0.6821949859   -1.0773763340    2.4503804734
H        2.3557174828   -0.7473020984    1.6684896838
H       -1.1642629341    0.9950746111    1.6744085346
H       -1.7670412587    0.4913002114    0.0596465679
H       -1.5769459434   -0.7340372182    1.3567446871
20   
torsion grid (45,)
C        1.0308373450   -2.2883291857   -2.8815582253
C       -1.0884600734   -2.8462911513   -1.9119897360
C       -0.1218105175   -3.0708206083   -2.8860459898
C        0.2094247930   -1.1700148795   -1.0834750106
C        1.2794097049    1.2719084113   -0.4193434740
C        1.4016813366   -0.4345129819    1.7337574035
C       -1.1714099519    0.1101726784    1.0162071612
N        1.1984387350   -1.3349680497   -1.9598975002
N       -0.9139456391   -1.8839870323   -0.9969816575
F       -0.2927482482   -4.0365584908   -3.8113660961
S        0.5718811014    0.0171786235    0.3721649595
H        1.8183147790   -2.4397205653   -3.6179914397
H       -1.9981626946   -3.4425048092   -1.8707905183
H        1.5619300302    2.1082807119    0.2068967803
H        1.0388906312    1.3853191439   -1.4683919938
H        0.8472475488   -1.0524286244    2.4331762867
H        2.4540620649   -0.6311083397    1.5624596014
H       -1.1400224017    0.8985183581    1.7694430191
H       -1.8116923478    0.3927831747    0.1809036387
H       -1.4948871591   -0.8405983792    1.4409493919
20   
torsion grid (60,)
C        1.1287498589   -2.4695653144   -2.6964973937
C       -1.1867187289   -2.6495440369   -2.1019175562
C       -0.1225599874   -3.0495079891   -2.9009685433
C        0.2143414342   -1.1961917628   -1.0546068122
C        1.1793295879    1.2955369673   -0.4946315036
C        1.5003850839   -0.3496827622    1.6789031168
C       -1.1446316623    0.0145480477    1.1070494252
N        1.2953219146   -1.5374458732   -1.7543433001
N       -1.0108259491   -1.7078912425   -1.1628720893
F       -0.2940915329   -3.9910273258   -3.8507390582
S        0.5642735060    0.0284121915    0.3658580446
H        1.9919924290   -2.7668023976   -3.2895719214
H       -2.1770897644   -3.0852441485   -2.2191376236
H        1.4163380061    2.1654738693    0.1069919333
H        0.7956411148    1.4055359022   -1.5030854375
H        1.0276002338   -0.9986849417    2.4097575286
H        2.5495730791   -0.4865475361    1.4431490667
H       -1.1073742770    0.7659253021    1.8965299088
H       -1.8470040983    0.2960784231    0.3243174193
H       -1.3942712113   -0.9710573675    1.5039413970
20   
torsion grid (75,)
C        1.1619333944   -2.6515690572   -2.5074212607
C       -1.2184009529   -2.4389234421   -2.2986076469
C       -0.1190753823   -3.0233452446   -2.9148712684
C        0.2155044781   -1.2216445595   -1.0228272889
C        1.0613338185    1.3110566258   -0.5617323142
C        1.5846964194   -0.2650823117    1.6242835082
C       -1.1105483291   -0.0826975856    1.1942424302
N        1.3251533129   -1.7399496373   -1.5447016563
N       -1.0437275428   -1.5209679164   -1.3339158611
F       -0.2866246716   -3.9419209008   -3.8875037509
S        0.5556447934    0.0349108405    0.3652961859
H        2.0481755315   -3.0944389533   -2.9584582063
H       -2.2346101578   -2.7064941826   -2.5812455663
H        1.2744242079    2.2068306379    0.0122858483
H        0.5648978699    1.3956498505   -1.5237799082
H        1.1964892025   -0.9400151673    2.3808149381
H        2.6257497863   -0.3348575475    1.3312044276
H       -1.0874448531    0.6657644401    1.9866961034
H       -1.8694978059    0.1453205052    0.4483792631
H       -1.2650940827   -1.0853083894    1.5999886246
20   
torsion grid (90,)
C        1.1310146494   -2.8240746111   -2.3394813551
C       -1.1926511781   -2.2398659431   -2.4719003134
C       -0.1223977055   -3.0031243617   -2.9229377330
C        0.2205483567   -1.2325487777   -1.0058795355
C        0.9427989611    1.3345890142   -0.6038609911
C        1.6547198903   -0.1867288574    1.5724503080
C       -1.0661421755   -0.1786572026    1.2619027598
N        1.2981940012   -1.9239530208   -1.3653163551
N       -1.0146471216   -1.3386795514   -1.4924184544
F       -0.2940555978   -3.9086887901   -3.9070004418
S        0.5542196312    0.0425607037    0.3639998396
H        1.9919263345   -3.4069859188   -2.6618376336
H       -2.1878719369   -2.3536632884   -2.8970621728
H        1.1306112007    2.2472289837   -0.0468515285
H        0.3680052507    1.3874400646   -1.5238756895
H        1.3456635977   -0.8857612404    2.3431307589
H        2.6842851008   -0.1882966734    1.2345381609
H       -1.0762813529    0.5769856892    2.0477615176
H       -1.8653438091   -0.0194640541    0.5398609503
H       -1.1236170603   -1.1859941599    1.6829045099
20   
torsion grid (105,)
C        1.0589793005   -2.9729167769   -2.1889074434
C       -1.1254930358   -2.0783806077   -2.6193990089
C       -0.1248513084   -2.9959411911   -2.9224023618
C        0.2290652902   -1.2250982781   -1.0087083156
C        0.8254773211    1.3775812232   -0.6168842673
C        1.7110774259   -0.1182258160    1.5189145113
C       -1.0170487637   -0.2691373058    1.3059889645
N        1.2321446770   -2.0712418639   -1.2153545819
N       -0.9440790228   -1.1797893336   -1.6401488057
F       -0.3023513178   -3.9012251245   -3.9057605373
S        0.5564789601    0.0581225990    0.3559791503
H        1.8611093093   -3.6807505484   -2.3897342409
H       -2.0690140648   -2.0712394143   -3.1616835771
H        0.9824747324    2.2954275807   -0.0590683849
H        0.2053834650    1.4019169240   -1.5074577293
H        1.4710634603   -0.8406598063    2.2923152262
H        2.7266785641   -0.0558886786    1.1463974764
H       -1.0572653020    0.4744378390    2.1025994497
H       -1.8443741043   -0.1514332802    0.6066481700
H       -0.9964765497   -1.2832401358    1.7147929067
20   
torsion grid (120,)
C        0.9486954318   -3.0995758057   -2.0419606248
C       -1.0288617880   -1.9484194975   -2.7613952787
C       -0.1300650269   -3.0004041562   -2.9153750184
C        0.2315142092   -1.2035683447   -1.0256647650
C        0.7162763454    1.4366776579   -0.6086986685
C        1.7624698163   -0.0597259449    1.4556688191
C       -0.9591724238   -0.3569596538    1.3409014196
N        1.1252209040   -2.1842601505   -1.0801193104
N       -0.8456673395   -1.0389297285   -1.7946494781
F       -0.3111202201   -3.9172268685   -3.8872752934
S        0.5580283945    0.0824053644    0.3415575172
H        1.6642189176   -3.9162094501   -2.1189000231
H       -1.8945938245   -1.8455318043   -3.4129101507
H        0.8334716482    2.3476776535   -0.0302884936
H        0.0597809320    1.4451074551   -1.4723879614
H        1.5902458629   -0.8107541729    2.2195767151
H        2.7591566290    0.0660200234    1.0494006517
H       -1.0105334303    0.3527067481    2.1676079274
H       -1.8165351676   -0.2531542339    0.6750013064
H       -0.8735508335   -1.3835570862    1.7080373107
20   
torsion grid (135,)
C        0.7990376208   -3.2029321007   -1.8930760308
C       -0.8926483041   -1.8433666966   -2.9136452087
C       -0.1275612010   -3.0070722138   -2.9117812006
C        0.2084312595   -1.1834603398   -1.0415035272
C        0.5934080729    1.4888645453   -0.5913892817
C        1.8084516966   -0.0032106360    1.3787550224
C       -0.8922707322   -0.4379269301    1.3906044477
N        0.9635019393   -2.2721116053   -0.9434887315
N       -0.7234072921   -0.9206685043   -1.9578579974
F       -0.2945177011   -3.9362774828   -3.8743702679
S        0.5461193620    0.1061316602    0.3261270642
H        1.4021484257   -4.1077164412   -1.8436475160
H       -1.6415913456   -1.6618008617   -3.6822472211
H        0.6929167154    2.3891834505    0.0057628771
H       -0.0876239271    1.4844315946   -1.4346650742
H        1.7102191817   -0.7777796276    2.1319102848
H        2.7772813356    0.1786178044    0.9281006778
H       -0.9425007843    0.2503711220    2.2355876879
H       -1.7873848451   -0.3654062766    0.7707942894
H       -0.7330304403   -1.4655524560    1.7281563069
20   
torsion grid (150,)
C        0.6101701114   -3.2771678171   -1.7592915940
C       -0.7186008118   -1.7600771289   -3.0571940853
C       -0.1223154166   -3.0097189040   -2.9115728041
C        0.1683815231   -1.1634523235   -1.0547809919
C        0.4603836499    1.5306869894   -0.5625792915
C        1.8513802718    0.0473691717    1.2914413437
C       -0.8158196142   -0.5164441539    1.4461790258
N        0.7553778773   -2.3335234321   -0.8202256454
N       -0.5718387054   -0.8253229949   -2.1087173037
F       -0.2640674616   -3.9509504902   -3.8664901310
S        0.5270930236    0.1247841453    0.3125421090
H        1.0746226579   -4.2480496377   -1.5968857472
H       -1.3145427963   -1.5177204032   -3.9350928539
H        0.5506147728    2.4190103214    0.0527706692
H       -0.2398642605    1.5156262084   -1.3887152771
H        1.8278104070   -0.7423188923    2.0345907747
H        2.7850017170    0.2828201962    0.7935630739
H       -0.8421852403    0.1461080019    2.3127752309
H       -1.7510988181   -0.4647180753    0.8858009760
H       -0.5915238504   -1.5446227767    1.7400091231
20   
torsion grid (165,)
C        0.4047862135   -3.3253186383   -1.6588559968
C       -0.5209838589   -1.7076035636   -3.1681235699
C       -0.1147171555   -3.0138580799   -2.9121257203
C        0.1314161127   -1.1475736421   -1.0676812610
C        0.3151648364    1.5546286734   -0.5220451200
C        1.8872424532    0.1019208047    1.2068365105
C       -0.7376514828   -0.5804442860    1.4977029462
N        0.5304806520   -2.3718232406   -0.7280299676
N       -0.3962748507   -0.7622930664   -2.2262168079
F       -0.2330717935   -3.9663568754   -3.8590267355
S        0.5063958480    0.1346719415    0.3008686093
H        0.7164964024   -4.3383563650   -1.4115511125
H       -0.9480365715   -1.4270243864   -4.1290909710
H        0.4100731837    2.4345475810    0.1029065969
H       -0.3898748674    1.5270395508   -1.3423191917
H        1.9394593690   -0.7005980407    1.9349511576
H        2.7803406077    0.3842156873    0.6607139308
H       -0.7415020813    0.0787577341    2.3672194174
H       -1.7051714299   -0.5628917015    0.9924214347
H       -0.4555925507   -1.5993220822    1.7695724520
20   
torsion grid (180,)
C        0.1890501803   -3.3515388857   -1.6029025059
C       -0.3143955172   -1.6769655438   -3.2437757298
C       -0.1146847421   -3.0154066651   -2.9192246293
C        0.1061798846   -1.1399577583   -1.0789425788
C        0.1671208432    1.5567969380   -0.4728912325
C        1.9181327156    0.1588938069    1.1295677233
C       -0.6558782418   -0.6340006657    1.5470083128
N        0.3031899467   -2.3947804099   -0.6745520069
N       -0.2009049621   -0.7276133694   -2.3049542427
F       -0.2221484106   -3.9734498154   -3.8618215510
S        0.4913710311    0.1360949402    0.2931686854
H        0.3392765159   -4.3872018729   -1.3039526584
H       -0.5680811497   -1.3734191560   -4.2577637043
H        0.2743854282    2.4351352155    0.1505227985
H       -0.5320410417    1.5145330923   -1.2961911003
H        2.0424710868   -0.6429003154    1.8498928500
H        2.7692798308    0.4889271603    0.5445215737
H       -0.6643210881    0.0510502965    2.3961655948
H       -1.6416683347   -0.6849384728    1.0811023657
H       -0.3073549386   -1.6269405147    1.8331486369
