27   
torsion grid (-165,)
C        0.9835481954   -2.9801497497   -0.4899802213
C       -1.2823167601   -0.2207742414    0.2895496871
C       -1.5778621428   -2.5826649079    1.0276836841
C       -2.1188311521   -0.4899394073   -0.9554648506
C       -2.4158188736   -2.8936537911   -0.2023415478
C       -0.5328197066   -1.4759173266    0.7705801760
C        1.9253027213   -2.9608941592   -1.6647826920
C        0.3090770117   -1.2018414179    2.0115911322
N       -3.0972796188   -1.6239667036   -0.6937300166
O        0.8072870450   -3.9158943768    0.2604824989
O        0.3495311969   -1.7697578638   -0.3613299656
H       -0.5651440714    0.5665569282    0.0416311648
H       -1.9108783218    0.1618994790    1.1017053579
H       -2.2282186560   -2.2432903586    1.8439238225
H       -1.0989141118   -3.5034805826    1.3552723431
H       -2.7068385722    0.3790841364   -1.2573294003
H       -1.4942076540   -0.8111920749   -1.7897929112
H       -1.8090350622   -3.2584199730   -1.0324716568
H       -3.2032114642   -3.6207547736    0.0058889800
H        1.4689312200   -2.4820879700   -2.5342909464
H        2.2296670941   -3.9798605574   -1.9013179108
H        2.8117347162   -2.3768143354   -1.3967389785
H        0.8476990427   -2.1029524752    2.3124576668
H       -0.3248327868   -0.8856883557    2.8456789792
H        1.0337131447   -0.4088722591    1.8087103475
H       -3.7781483104   -1.3211547282    0.0124450257
H       -3.6341248411   -1.8222289700   -1.5455737306
27   
torsion grid (-150,)
C        0.8806192872   -3.0065336120   -0.6236732354
C       -1.2712342035   -0.2291342335    0.2616313977
C       -1.5638018638   -2.5669690289    1.0689277221
C       -2.1033728169   -0.5422605655   -0.9755532281
C       -2.4206582563   -2.9141258445   -0.1387397844
C       -0.5192369644   -1.4669999606    0.7837458264
C        1.9693002490   -2.9115115567   -1.6601897367
C        0.3027473783   -1.1597650535    2.0309853511
N       -3.0918699555   -1.6561290916   -0.6726402440
O        0.4680353602   -4.0344499044   -0.1280579743
O        0.4182805891   -1.7572193568   -0.3061287102
H       -0.5545483626    0.5507496009   -0.0097116618
H       -1.9034760451    0.1789560542    1.0585552101
H       -2.2046116479   -2.1943171714    1.8787322098
H       -1.0939470538   -3.4821494361    1.4218875884
H       -2.6817110070    0.3185859912   -1.3168316031
H       -1.4770726892   -0.9018956591   -1.7932856202
H       -1.8285721841   -3.3257127172   -0.9560710174
H       -3.2154501085   -3.6200278710    0.1106283844
H        1.7087849963   -2.1989913054   -2.4462033442
H        2.1565279276   -3.8990491853   -2.0803945449
H        2.8831944587   -2.5480689071   -1.1791764411
H        0.8470593763   -2.0520870248    2.3514684262
H       -0.3415544602   -0.8372930813    2.8544457651
H        1.0251641486   -0.3666359075    1.8227400194
H       -3.7695423003   -1.3208446703    0.0217307821
H       -3.6310445702   -1.8808313176   -1.5163654999
27   
torsion grid (-135,)
C        0.8247912758   -2.9855024954   -0.7662643940
C       -1.2553807907   -0.2500821605    0.2134405345
C       -1.5335249246   -2.5824430947    1.0770571633
C       -2.1102942173   -0.5992332545   -0.9967140816
C       -2.4702550858   -2.9246571598   -0.0742640507
C       -0.5050281321   -1.4716916214    0.7738538764
C        2.0573398773   -2.8780401956   -1.6254869800
C        0.2787158659   -1.1184255711    2.0364025977
N       -3.1246125315   -1.6622977112   -0.6157181829
O        0.2064638890   -4.0090670457   -0.5518504935
O        0.5010826947   -1.7610092918   -0.2547124456
H       -0.5340311862    0.5127971867   -0.0909083748
H       -1.8755436818    0.1927149506    1.0019712037
H       -2.1235037166   -2.2262603303    1.9314061525
H       -1.0436906269   -3.5031567728    1.3894391641
H       -2.6661355960    0.2609941109   -1.3749986181
H       -1.5100444346   -1.0209265930   -1.8050266323
H       -1.9355759866   -3.3841895379   -0.9039691776
H       -3.2750019002   -3.5908738389    0.2437274869
H        2.0157685699   -1.9959368749   -2.2682780987
H        2.1655402080   -3.7850787984   -2.2191206788
H        2.9316543369   -2.7685284385   -0.9756298020
H        0.8232175324   -1.9950691846    2.3978484391
H       -0.3891818429   -0.7759179104    2.8322437641
H        1.0014795819   -0.3273511784    1.8225691045
H       -3.7599026334   -1.2773893120    0.0928868222
H       -3.7063372626   -1.8980886920   -1.4274482613
27   
torsion grid (-120,)
C        0.7990383704   -2.9173494198   -0.8964125287
C       -1.2385952157   -0.2731770653    0.1611290386
C       -1.4973417570   -2.6103706731    1.0704615464
C       -2.1224658244   -0.6553246709   -1.0169926188
C       -2.5253135663   -2.9336487733   -0.0101488497
C       -0.4916535639   -1.4788570791    0.7583655947
C        2.1389104594   -2.8644073954   -1.5824485945
C        0.2454570387   -1.0817281319    2.0394842531
N       -3.1581436968   -1.6625082461   -0.5545815338
O        0.0211433195   -3.8504785360   -0.9529051820
O        0.5832919138   -1.7684507673   -0.1981549376
H       -0.5112478382    0.4684963637   -0.1783481137
H       -1.8426406610    0.2069095265    0.9408653610
H       -2.0229038425   -2.2965603977    1.9806471342
H       -0.9779165214   -3.5377377818    1.3139160281
H       -2.6596150543    0.2015995999   -1.4284050855
H       -1.5560124494   -1.1386827112   -1.8154071821
H       -2.0614778919   -3.4360775772   -0.8560801896
H       -3.3369580434   -3.5500126380    0.3825687878
H        2.3039195636   -1.8905218365   -2.0484404406
H        2.1994074994   -3.6625004951   -2.3214457824
H        2.9251654219   -3.0070473762   -0.8340496959
H        0.7849576193   -1.9422421600    2.4442958309
H       -0.4516027319   -0.7201488182    2.8006688827
H        0.9702810196   -0.2927566956    1.8256684353
H       -3.7439201719   -1.2282063923    0.1680443702
H       -3.7857541136   -1.9029206677   -1.3298384911
27   
torsion grid (-105,)
C        0.7255130042   -2.7627584587   -1.1121335463
C       -0.9412125424   -0.3423581260    0.6055422080
C       -1.7687897164   -2.7464078583    0.6299846161
C       -1.6786383559   -0.1426735461   -0.7111085115
C       -2.7104557390   -2.4472434520   -0.5376017882
C       -0.5563103462   -1.8107342333    0.8514380058
C        2.1608621158   -3.0587886912   -1.4551706713
C       -0.0455700404   -1.9897797886    2.2857711362
N       -2.9610707763   -0.9533103712   -0.6774693735
O       -0.2369717879   -3.0846433783   -1.7854002430
O        0.6472610068   -2.0647471570    0.0491629477
H       -0.0355163985    0.2687513803    0.5994708685
H       -1.5619796880    0.0186286726    1.4350550234
H       -2.3438391171   -2.7063086671    1.5618609970
H       -1.4351649954   -3.7807391085    0.5226485393
H       -1.9575181773    0.8998903386   -0.8772787193
H       -1.1079459342   -0.5061872629   -1.5670613010
H       -2.2822579129   -2.7687213372   -1.4822321020
H       -3.6859030426   -2.9154252534   -0.3879760344
H        2.7754898860   -2.1618521557   -1.3478448679
H        2.2197773899   -3.4456283484   -2.4716277282
H        2.5504871845   -3.8058050998   -0.7564311480
H        0.2390049644   -3.0314405988    2.4565986682
H       -0.8123017691   -1.7140722788    3.0149424899
H        0.8350957825   -1.3646987133    2.4503159082
H       -3.5412342511   -0.6211241126    0.1015538886
H       -3.5028014614   -0.7865332100   -1.5325532250
27   
torsion grid (-90,)
C        0.7445720466   -2.6382136901   -1.1308784655
C       -0.9175996456   -0.3482200351    0.5686421101
C       -1.7370971280   -2.7681290026    0.6370667665
C       -1.6938960023   -0.1582267821   -0.7281280043
C       -2.6911534302   -2.4864883397   -0.5257493321
C       -0.5405356688   -1.8116946739    0.8613490180
C        2.1365736715   -3.1025964035   -1.4616074682
C       -0.0738183678   -1.9403268576    2.3172411150
N       -2.9595827502   -0.9959115546   -0.6692525009
O       -0.2096004620   -2.6866939365   -1.8894012474
O        0.6879344444   -2.1363585623    0.1256559550
H       -0.0061592840    0.2529787948    0.5244696312
H       -1.5096124327    0.0414864219    1.4060066507
H       -2.3128288484   -2.7502857144    1.5687149580
H       -1.3763018702   -3.7939651673    0.5269678167
H       -2.0042137594    0.8794004657   -0.8696663980
H       -1.1418558264   -0.5016324560   -1.6021202030
H       -2.2758768178   -2.8059691955   -1.4757724038
H       -3.6608006670   -2.9618452587   -0.3609447787
H        2.8727747530   -2.3528227510   -1.1625383232
H        2.2085163275   -3.3086215023   -2.5286774654
H        2.3544702299   -4.0153874943   -0.8980093077
H        0.2082589022   -2.9744016592    2.5316848799
H       -0.8638757338   -1.6421229103    3.0114107143
H        0.8001331425   -1.3073314029    2.4879502781
H       -3.5353168478   -0.6700263974    0.1156973382
H       -3.5150986932   -0.8413047508   -1.5176552963
27   
torsion grid (-75,)
C        0.7641972821   -2.5703421594   -1.1324929619
C       -0.8809390480   -0.3692031082    0.5236092615
C       -1.7457247602   -2.7756839521    0.6649529539
C       -1.7178331545   -0.1635043442   -0.7342903056
C       -2.6616227183   -2.5156816450   -0.5306435005
C       -0.5365887105   -1.8324790525    0.8717215778
C        2.1226340997   -3.1166211426   -1.4771709156
C       -0.0947118235   -1.9087326187    2.3392642994
N       -2.9634019211   -1.0309962588   -0.6593584374
O       -0.1507409158   -2.4157203349   -1.9259507281
O        0.6847098004   -2.2653716769    0.1829947421
H        0.0453949356    0.2019098525    0.4205764767
H       -1.4146527914    0.0637450458    1.3782650518
H       -2.3462539629   -2.7181430925    1.5796991570
H       -1.3948481634   -3.8092466640    0.6015350658
H       -2.0583110441    0.8707816244   -0.8226198993
H       -1.1950012156   -0.4628296873   -1.6394655948
H       -2.2070507994   -2.8110684147   -1.4710056215
H       -3.6229145418   -3.0192554583   -0.4042020194
H        2.9077235991   -2.4730154118   -1.0730632774
H        2.2166495792   -3.2037185682   -2.5586605403
H        2.2428982678   -4.1027887161   -1.0177957718
H        0.1783418579   -2.9352636812    2.5963942797
H       -0.8943147008   -1.5807383588    3.0083630164
H        0.7799327402   -1.2740561701    2.5011503283
H       -3.5345805145   -0.7278743330    0.1381055856
H       -3.5349820942   -0.8788124893   -1.4974561852
27   
torsion grid (-60,)
C        0.7736263901   -2.5459184572   -1.1304881448
C       -0.8366421718   -0.4123123727    0.4896430574
C       -1.7985523888   -2.7759037486    0.6984547845
C       -1.7253074211   -0.1652003393   -0.7273489281
C       -2.6530251910   -2.5241893216   -0.5403289693
C       -0.5519443310   -1.8811992685    0.8815080322
C        2.1303365366   -3.0910878745   -1.4839611441
C       -0.1107422406   -1.9296666350    2.3497903883
N       -2.9651236461   -1.0416050240   -0.6588687816
O       -0.0851457428   -2.2311953682   -1.9394663663
O        0.6283859825   -2.4363661759    0.2094142855
H        0.1109890800    0.1088143470    0.3286687150
H       -1.2991300987    0.0665682073    1.3604221654
H       -2.4264709140   -2.6491161102    1.5882299606
H       -1.4898638417   -3.8246981261    0.6932221830
H       -2.0748116629    0.8696085441   -0.7543154032
H       -1.2312633255   -0.4161835853   -1.6612574587
H       -2.1463856158   -2.8001497028   -1.4610300139
H       -3.6123114896   -3.0423388946   -0.4700869699
H        2.8838538979   -2.3169957715   -1.3057604397
H        2.1460905406   -3.3728654045   -2.5359761545
H        2.3827019429   -3.9438147932   -0.8500026105
H        0.1268251956   -2.9570517907    2.6364936662
H       -0.8976466591   -1.5548345011    3.0092138606
H        0.7857188498   -1.3211880566    2.4928124810
H       -3.5413645242   -0.7532898401    0.1404664741
H       -3.5347878695   -0.8825307517   -1.4969926321
27   
torsion grid (-45,)
C        0.7913207945   -2.4952155349   -1.1426277312
C       -0.8274102906   -0.4333098504    0.4573047337
C       -1.8376431842   -2.7594212335    0.7451902745
C       -1.7622349536   -0.1679704599   -0.7234088338
C       -2.6323089267   -2.5449299891   -0.5368357604
C       -0.5645047314   -1.8996422879    0.8822035042
C        2.1304717362   -3.0952074367   -1.4739140877
C       -0.0817299048   -1.9221432232    2.3364299285
N       -2.9824870167   -1.0725822498   -0.6633196014
O        0.0138798212   -2.0251103794   -1.9577699172
O        0.5530641510   -2.5509218383    0.1879644981
H        0.1236464001    0.0627667448    0.2453121727
H       -1.2360168482    0.0703804882    1.3404418873
H       -2.4861593084   -2.5539196780    1.6059543571
H       -1.5643173609   -3.8156587060    0.8124478278
H       -2.1343199178    0.8589876000   -0.7023826404
H       -1.2860657722   -0.3723210665   -1.6766909366
H       -2.0659268115   -2.8000147283   -1.4302281184
H       -3.5751902816   -3.0962970697   -0.5222644763
H        2.9201196042   -2.4140449924   -1.1406207037
H        2.2088899715   -3.2399142345   -2.5505803343
H        2.2713893964   -4.0402824032   -0.9446604042
H        0.1413708139   -2.9473114476    2.6415698989
H       -0.8405430565   -1.5135332138    3.0087240324
H        0.8316630773   -1.3306042820    2.4385290366
H       -3.5727239042   -0.8017901472    0.1318364396
H       -3.5482242148   -0.9246991962   -1.5061490087
27   
torsion grid (-30,)
C        0.8262320356   -2.4304475850   -1.1509768887
C       -0.8414233309   -0.4416167420    0.4422928636
C       -1.8686379223   -2.7411148623    0.7843246958
C       -1.8005550109   -0.1712166389   -0.7187840097
C       -2.6201766629   -2.5598808965   -0.5271449104
C       -0.5780858678   -1.9056875770    0.8766397637
C        2.1278947360   -3.1199331879   -1.4572752984
C       -0.0388715082   -1.9179372152    2.3097151569
N       -3.0044438585   -1.0985946936   -0.6696417686
O        0.1645326892   -1.7949482731   -1.9540561326
O        0.4688894478   -2.6268948516    0.1408330696
H        0.1039122433    0.0538036847    0.2064115658
H       -1.2286906651    0.0628202696    1.3344845906
H       -2.5278371221   -2.4800774320    1.6219434183
H       -1.6185377012   -3.7983883463    0.9024670177
H       -2.1900256426    0.8483531641   -0.6737690178
H       -1.3280901457   -0.3483615846   -1.6791989119
H       -2.0098033622   -2.8013306652   -1.3971720680
H       -3.5448452430   -3.1403943233   -0.5530302123
H        2.9468633574   -2.5530941091   -1.0026206322
H        2.2736559706   -3.1612583265   -2.5359566231
H        2.1461282849   -4.1226481376   -1.0245944449
H        0.1866825479   -2.9420622224    2.6159517935
H       -0.7669143632   -1.4954859082    3.0072902111
H        0.8829419934   -1.3334731458    2.3701364380
H       -3.6124441305   -0.8391240762    0.1156999490
H       -3.5603414867   -0.9657171338   -1.5215135778
27   
torsion grid (-15,)
C        0.9085205389   -2.3150295906   -1.1387869325
C       -0.8840148211   -0.4307785333    0.4466195490
C       -1.8778195618   -2.7296286428    0.8139661293
C       -1.8305185854   -0.1935603364   -0.7299929000
C       -2.6232014482   -2.5815733198   -0.5043169627
C       -0.5886329958   -1.8913077757    0.8657181831
C        2.1046232740   -3.1723208115   -1.4566860102
C        0.0042699269   -1.9019808013    2.2774413341
N       -3.0277622439   -1.1297800850   -0.6753963577
O        0.4469169421   -1.4597687677   -1.8718799567
O        0.4049856892   -2.6352058331    0.0809899557
H        0.0448906145    0.0991097575    0.2261715107
H       -1.3053559787    0.0479822230    1.3380915197
H       -2.5353045961   -2.4434030614    1.6445242249
H       -1.6269956067   -3.7832241981    0.9592922987
H       -2.2264873640    0.8243456283   -0.7186260085
H       -1.3364777185   -0.3908892243   -1.6770545626
H       -2.0001837446   -2.8313191632   -1.3648207966
H       -3.5357225563   -3.1804549863   -0.5337730781
H        2.9577193800   -2.8236933524   -0.8655734524
H        2.3428319374   -3.0852143418   -2.5160875885
H        1.9221324401   -4.2140427212   -1.1841269719
H        0.2496865553   -2.9247847954    2.5723616399
H       -0.6994681063   -1.4867027895    3.0039952709
H        0.9225233300   -1.3091747201    2.3043751262
H       -3.6456943072   -0.8648844169    0.1003478617
H       -3.5774517116   -1.0174261568   -1.5343169882
27   
torsion grid (0,)
C        0.9975270120   -2.1880335496   -1.0860137477
C       -0.9282126623   -0.4231839087    0.4608298720
C       -1.8844471584   -2.7231315589    0.8527384612
C       -1.8154350848   -0.2459412275   -0.7678467913
C       -2.6379728938   -2.6146991889   -0.4649600137
C       -0.6001437605   -1.8766928195    0.8679314941
C        2.0481377028   -3.1866842594   -1.4956324564
C        0.0381981452   -1.8849522340    2.2593723235
N       -3.0246507081   -1.1665024756   -0.7001165211
O        0.7611497174   -1.1445941598   -1.6640518951
O        0.3494425428   -2.6201794634    0.0314397234
H       -0.0171872592    0.1511537693    0.2920889318
H       -1.4266743720    0.0236222828    1.3298727831
H       -2.5345609905   -2.4176383203    1.6817046978
H       -1.6278989655   -3.7722021672    1.0196570884
H       -2.1969811595    0.7747540959   -0.8419418314
H       -1.2805328460   -0.5016186521   -1.6800663912
H       -2.0205022537   -2.9113865535   -1.3151046440
H       -3.5572747674   -3.2037500319   -0.4686073938
H        2.8950296412   -3.1119908805   -0.8058101451
H        2.3885404559   -2.9607730517   -2.5054974798
H        1.6655883322   -4.2078325727   -1.4342215307
H        0.2940937395   -2.9070092135    2.5483332845
H       -0.6412795185   -1.4689865294    3.0086804111
H        0.9554556666   -1.2898797380    2.2555631272
H       -3.6503969484   -0.8628883473    0.0549784035
H       -3.5610023248   -1.0836900601   -1.5708637231
27   
torsion grid (15,)
C        1.0587280075   -2.1041184294   -1.0168296645
C       -0.9629956688   -0.4241476502    0.4701600187
C       -1.9022955988   -2.7139745357    0.8957249926
C       -1.7865527089   -0.2976632244   -0.8053208478
C       -2.6575427871   -2.6437394896   -0.4246653675
C       -0.6158986684   -1.8718147978    0.8737166390
C        1.9994070189   -3.1609001992   -1.5336611353
C        0.0742808445   -1.8805497176    2.2383714152
N       -3.0107416400   -1.1995214022   -0.7339619529
O        1.0021799563   -0.9588591948   -1.4184746877
O        0.2757526788   -2.6177726819   -0.0223211981
H       -0.0660112844    0.1802805055    0.3484610025
H       -1.5274030420    0.0005025317    1.3102911505
H       -2.5449997816   -2.3808809697    1.7192904832
H       -1.6501394053   -3.7597519910    1.0886627055
H       -2.1494419172    0.7213767086   -0.9551424252
H       -1.2181776092   -0.6054746879   -1.6816045193
H       -2.0453690036   -2.9962281667   -1.2568949799
H       -3.5911448686   -3.2093602340   -0.4023169161
H        2.8118089906   -3.2915602044   -0.8112342134
H        2.4194193389   -2.8381136236   -2.4856898252
H        1.4954528340   -4.1242004636   -1.6372380167
H        0.3214989866   -2.9043515644    2.5292113336
H       -0.5682931172   -1.4438583578    3.0085732244
H        1.0006284686   -1.3012650411    2.1943042365
H       -3.6483181847   -0.8504670118   -0.0090164554
H       -3.5258225567   -1.1482969227   -1.6199389596
27   
torsion grid (30,)
C        1.1235109361   -2.0490266351   -0.9188707791
C       -0.9941259700   -0.4239094178    0.4696511293
C       -1.9171487404   -2.7024265115    0.9373807625
C       -1.7614052834   -0.3479294749   -0.8419762009
C       -2.6740779684   -2.6722011706   -0.3849709191
C       -0.6292162040   -1.8646481032    0.8790144081
C        1.9459390188   -3.1249249022   -1.5780288843
C        0.1089214689   -1.8683422679    2.2159965112
N       -2.9961690463   -1.2368356577   -0.7688070059
O        1.2517047247   -0.8556854232   -1.0996529744
O        0.2038488059   -2.6079539412   -0.0726918999
H       -0.1098424621    0.2026639047    0.3809844537
H       -1.6099853922   -0.0110753126    1.2793280059
H       -2.5533169833   -2.3415823626    1.7537341493
H       -1.6696080705   -3.7440107366    1.1579445310
H       -2.1086526253    0.6644158249   -1.0583411375
H       -1.1666064410   -0.7036127596   -1.6831282875
H       -2.0688413599   -3.0780211985   -1.1971398498
H       -3.6209844813   -3.2135769059   -0.3370448242
H        2.6830427439   -3.4937175540   -0.8571400467
H        2.4694738248   -2.7060499919   -2.4368002245
H        1.3266808292   -3.9737294289   -1.8761507834
H        0.3535990191   -2.8918182740    2.5107458117
H       -0.5019093304   -1.4153579389    3.0026874896
H        1.0383920724   -1.2984945653    2.1336912686
H       -3.6474933266   -0.8455574518   -0.0785063699
H       -3.4877204768   -1.2213025594   -1.6694522967
27   
torsion grid (45,)
C        1.2156932186   -2.0401482742   -0.7783709646
C       -1.0064975100   -0.4252698293    0.4338255666
C       -1.9263080106   -2.6904201835    0.9683361565
C       -1.7637244986   -0.3975072912   -0.8849445597
C       -2.6975710382   -2.6988657171   -0.3465909048
C       -0.6384684866   -1.8572822030    0.8712636695
C        1.9084422302   -3.0746340466   -1.6256226811
C        0.1290754574   -1.8440339086    2.1907817122
N       -3.0055997837   -1.2740369721   -0.7815098615
O        1.5498170790   -0.8798305037   -0.6667616090
O        0.1488680064   -2.5960165986   -0.1194505740
H       -0.1183902667    0.1945958373    0.3322092888
H       -1.6269412765    0.0129089890    1.2259705816
H       -2.5518171143   -2.3028096507    1.7804306205
H       -1.6797052791   -3.7259415588    1.2171103505
H       -2.1018891899    0.6064278069   -1.1491684718
H       -1.1707572988   -0.7981457120   -1.7084416122
H       -2.1055588043   -3.1416378568   -1.1486395201
H       -3.6514557741   -3.2243202538   -0.2689965332
H        2.5107816576   -3.7158908800   -0.9737543442
H        2.5663831118   -2.5774802042   -2.3376649626
H        1.1905225140   -3.7151871749   -2.1427071270
H        0.3766418727   -2.8645421962    2.4942694107
H       -0.4684175153   -1.3822670465    2.9827767392
H        1.0552947601   -1.2747259957    2.0841382104
H       -3.6513946131   -0.8510039624   -0.1047928340
H       -3.4990141660   -1.2866454288   -1.6812397094
27   
torsion grid (60,)
C        1.2928481949   -2.0625768061   -0.6863759927
C       -1.0211216311   -0.4176662496    0.3849502644
C       -1.9217357624   -2.6815584891    0.9668947777
C       -1.8173652336   -0.4125617959   -0.9112744381
C       -2.7365626327   -2.7030145814   -0.3210668677
C       -0.6392575389   -1.8433209473    0.8307070666
C        1.9527006050   -3.0573872264   -1.6030645007
C        0.1529323239   -1.8364240574    2.1356092110
N       -3.0581897172   -1.2815674932   -0.7567712561
O        1.7348828637   -0.9766886430   -0.3799312894
O        0.0976570716   -2.5536828490   -0.2159050311
H       -0.1273162819    0.1889776107    0.2420059199
H       -1.6070666278    0.0488648156    1.1867179600
H       -2.5237740740   -2.2923618050    1.7957885035
H       -1.6628062537   -3.7144784466    1.2142903914
H       -2.1578082981    0.5874924837   -1.1868965300
H       -1.2503938021   -0.8368154067   -1.7414755233
H       -2.1733282979   -3.1530185162   -1.1394154023
H       -3.6876211140   -3.2265222748   -0.2048123894
H        2.4048581960   -3.8492799154   -0.9968886058
H        2.7348480153   -2.5592633343   -2.1750137907
H        1.2267316874   -3.5283691719   -2.2697846075
H        0.4351872359   -2.8571152422    2.4081291656
H       -0.4557494797   -1.4218813848    2.9450629267
H        1.0565948720   -1.2332395087    2.0407026629
H       -3.6783889394   -0.8508073733   -0.0611493156
H       -3.5827460994   -1.3004442073   -1.6385772722
27   
torsion grid (75,)
C        1.3597234170   -2.0984503260   -0.6335416974
C       -1.0542469637   -0.3884504778    0.3592211368
C       -1.8927052706   -2.6763591581    0.9414924926
C       -1.8943831753   -0.3886821843   -0.9095609078
C       -2.7455198357   -2.7018763192   -0.3209300672
C       -0.6302187335   -1.8078088944    0.7826498291
C        1.9931855657   -3.1045403392   -1.5556039942
C        0.1795406028   -1.8141195633    2.0770226603
N       -3.1124743435   -1.2820470514   -0.7239580060
O        1.8806784683   -1.0920517831   -0.2076649289
O        0.0660388059   -2.4612878232   -0.3266671927
H       -0.1683037348    0.2247077394    0.1822841067
H       -1.6091416530    0.0794643814    1.1818885082
H       -2.4801347208   -2.3094054790    1.7908376903
H       -1.6043926479   -3.7056597531    1.1708389777
H       -2.2612315361    0.6073198871   -1.1652477722
H       -1.3457213877   -0.7977495358   -1.7591503982
H       -2.1982975349   -3.1268005587   -1.1630455566
H       -3.6801343204   -3.2490178619   -0.1820217866
H        2.2703577854   -3.9916489217   -0.9766888858
H        2.8902847773   -2.6744904020   -1.9996101621
H        1.2946303884   -3.4240306408   -2.3326086784
H        0.5419101280   -2.8246638510    2.2870605966
H       -0.4603550998   -1.5051677713    2.9093053089
H        1.0320427708   -1.1387910703    2.0246916751
H       -3.7166176832   -0.8739807142   -0.0009856119
H       -3.6665047866   -1.2991223437   -1.5875512992
27   
torsion grid (90,)
C        1.4300551698   -2.1506700042   -0.5833934768
C       -1.1025826412   -0.3454048539    0.3605332150
C       -1.8412596527   -2.6766447773    0.9081756334
C       -1.9653276797   -0.3553693349   -0.8934295410
C       -2.7122987075   -2.7114374673   -0.3411977590
C       -0.6148415127   -1.7528530864    0.7521573353
C        1.9806338160   -3.1769150055   -1.5363610827
C        0.1958053874   -1.7533718801    2.0462031199
N       -3.1435397013   -1.2991140662   -0.7046910278
O        2.0527962965   -1.2623576164   -0.0502950801
O        0.0721661160   -2.3313570248   -0.4030901687
H       -0.2390864107    0.2981287032    0.1713461710
H       -1.6517422993    0.0981270257    1.2001192939
H       -2.4320323101   -2.3537737834    1.7731043159
H       -1.5066492007   -3.6974772414    1.1109932372
H       -2.3754297341    0.6298832203   -1.1236996970
H       -1.4140810284   -0.7279668437   -1.7577480644
H       -2.1621581991   -3.0941776905   -1.2013390725
H       -3.6213619029   -3.2994265210   -0.1996012242
H        2.0598034561   -4.1389263413   -1.0194765633
H        2.9703887068   -2.8673270671   -1.8699572865
H        1.3149472931   -3.3163162368   -2.3916719174
H        0.6283023229   -2.7424623574    2.2227529182
H       -0.4725640416   -1.5258312479    2.8825309464
H        1.0002446435   -1.0211998279    2.0297295098
H       -3.7490255677   -0.9318390692    0.0387727013
H       -3.7131533364   -1.3186304199   -1.5580103989
27   
torsion grid (105,)
C        1.4923791198   -2.2556458124   -0.5033558879
C       -1.1432315110   -0.3083405033    0.3705055914
C       -1.7871657072   -2.6730822819    0.8975624893
C       -1.9976907598   -0.3455704322   -0.8891817633
C       -2.6478171959   -2.7356254898   -0.3576657953
C       -0.5988109100   -1.6962881637    0.7572839245
C        1.9106244466   -3.2064328001   -1.5944544495
C        0.1864014505   -1.6565552268    2.0665329801
N       -3.1357614427   -1.3396239878   -0.7135490259
O        2.2303612545   -1.5987196131    0.1893783793
O        0.1123078674   -2.2112738290   -0.4134853761
H       -0.3069080501    0.3729589700    0.1892873984
H       -1.7144398873    0.1077478436    1.2093023672
H       -2.3977991250   -2.3824788390    1.7603861496
H       -1.4111334563   -3.6801780641    1.0969306475
H       -2.4481672369    0.6229560977   -1.1149883378
H       -1.4251401021   -0.6888827017   -1.7515677703
H       -2.0767082344   -3.0879154444   -1.2170425264
H       -3.5324874299   -3.3618727217   -0.2258843157
H        1.7880434254   -4.2353133039   -1.2403902641
H        2.9584207157   -3.0360263793   -1.8390676365
H        1.2872847201   -3.0848847538   -2.4836530956
H        0.6646917605   -2.6190564325    2.2637926242
H       -0.5157904185   -1.4557967519    2.8823306701
H        0.9563387171   -0.8881533598    2.0652377922
H       -3.7607957000   -1.0039098458    0.0287133410
H       -3.6989970287   -1.3767469888   -1.5705020734
27   
torsion grid (120,)
C        1.5024229893   -2.4851465743   -0.3872400340
C       -1.1465551361   -0.3055360012    0.3331109348
C       -1.7576543680   -2.6667839483    0.9513313071
C       -1.9909554752   -0.4086117892   -0.9306241878
C       -2.6087056095   -2.7865374019   -0.3066267837
C       -0.5919171547   -1.6710865209    0.7858302556
C        1.8618171917   -3.0739652059   -1.7289378784
C        0.1619110688   -1.5256244564    2.1076503581
N       -3.1150433179   -1.4114547056   -0.7161822394
O        2.2628785067   -2.3051872791    0.5298977787
O        0.1523119786   -2.1778488065   -0.3670669554
H       -0.3158171637    0.3758842253    0.1302085792
H       -1.7316705727    0.1393547874    1.1468697012
H       -2.3788368240   -2.3647447285    1.8028633602
H       -1.3596671108   -3.6581639310    1.1845858614
H       -2.4547625001    0.5416494225   -1.2025450841
H       -1.4074300807   -0.7827423169   -1.7723789865
H       -2.0268319674   -3.1598208431   -1.1498627305
H       -3.4849918956   -3.4208970263   -0.1588998770
H        1.3754643395   -4.0470645472   -1.8483500469
H        2.9421883616   -3.2006971698   -1.7844434259
H        1.5183928383   -2.4268912332   -2.5404174888
H        0.5815843715   -2.4747580879    2.4416049022
H       -0.5517573507   -1.1779728722    2.8627159637
H        0.9743428469   -0.8036978942    2.0380307731
H       -3.7455569188   -1.0564465914    0.0124174924
H       -3.6771517648   -1.4899193199   -1.5710855123
27   
torsion grid (135,)
C        1.3904990060   -2.7674813960   -0.3359223708
C       -1.1510388541   -0.3275025588    0.2465854392
C       -1.7594773618   -2.6544530698    1.0145753553
C       -2.0390309919   -0.4903694836   -0.9809892189
C       -2.6535815720   -2.8287275521   -0.2067637950
C       -0.6015781770   -1.6758313539    0.7541785485
C        1.9811565975   -2.8569865466   -1.7197254134
C        0.2124000458   -1.4386862048    2.0273819025
N       -3.1612248905   -1.4713663974   -0.6725773126
O        1.9108924318   -3.1473662138    0.6834178283
O        0.1295908151   -2.2000737146   -0.4001876755
H       -0.3184465168    0.3283117187   -0.0203075758
H       -1.7065660237    0.1677772577    1.0514942914
H       -2.3479209119   -2.3074959838    1.8725955392
H       -1.3541190509   -3.6340569216    1.2821209220
H       -2.5073671506    0.4470999886   -1.2875934009
H       -1.4868864597   -0.9137496709   -1.8205437101
H       -2.1036461886   -3.2514201711   -1.0483800800
H       -3.5302570480   -3.4454764028    0.0007669535
H        1.2553371768   -3.2634041354   -2.4287215346
H        2.8707879507   -3.4848506848   -1.6902297247
H        2.2568950524   -1.8548438065   -2.0632486103
H        0.5411454612   -2.3677190046    2.4881272598
H       -0.4184159463   -0.8938720843    2.7377907685
H        1.0958532367   -0.8296091848    1.8241919638
H       -3.7638117441   -1.0718808536    0.0566397914
H       -3.7531796041   -1.5906763849   -1.5022201036
27   
torsion grid (150,)
C        1.2657406158   -2.8942886398   -0.3574470433
C       -1.1907228601   -0.3002898536    0.2280639870
C       -1.7150468611   -2.6530271337    0.9983682546
C       -2.1176965278   -0.4771500547   -0.9690118071
C       -2.6430542672   -2.8393475770   -0.1950660890
C       -0.5979985905   -1.6393824292    0.7049637695
C        2.0730786192   -2.8447219491   -1.6268007906
C        0.2715470907   -1.3841574295    1.9382371774
N       -3.2015273960   -1.4912163155   -0.6305107447
O        1.5235094332   -3.5423252075    0.6292034092
O        0.1347348844   -2.1079547071   -0.4723557948
H       -0.3812664308    0.3727753403   -0.0646940459
H       -1.7286312597    0.1772284710    1.0549943346
H       -2.2839816265   -2.3301880007    1.8788025643
H       -1.2696126488   -3.6209408751    1.2423273400
H       -2.6219632334    0.4494228744   -1.2507662023
H       -1.5843742289   -0.8777705913   -1.8317276819
H       -2.1101712454   -3.2386631814   -1.0590618681
H       -3.4958143129   -3.4818540997    0.0327826394
H        1.4299749503   -2.9670739972   -2.5021593341
H        2.8327461861   -3.6250216982   -1.6032351419
H        2.5587750365   -1.8670713120   -1.7087965288
H        0.6268406172   -2.3061092338    2.3929350514
H       -0.3182463584   -0.8303449380    2.6755080316
H        1.1386010957   -0.7717057057    1.6749310487
H       -3.7885306322   -1.1144928299    0.1230861515
H       -3.8189007673   -1.6190397414   -1.4401146496
27   
torsion grid (165,)
C        1.1654861658   -2.9398603611   -0.3884218371
C       -1.2386964967   -0.2618524789    0.2477054815
C       -1.6532599144   -2.6418743874    0.9784386299
C       -2.1615284039   -0.4590706975   -0.9495151488
C       -2.5764929832   -2.8534601767   -0.2133923679
C       -0.5793273836   -1.5779974853    0.6949022368
C        2.0700850144   -2.9098256823   -1.5901271504
C        0.3021741315   -1.3152637996    1.9170632256
N       -3.1976109910   -1.5264791789   -0.6286408724
O        1.2428363382   -3.7043814231    0.5464831173
O        0.1886780661   -1.9710989545   -0.4872710641
H       -0.4657733119    0.4567320274   -0.0360321965
H       -1.7932986758    0.1717178400    1.0876053313
H       -2.2326611759   -2.3449755276    1.8613052579
H       -1.1711470018   -3.5927232848    1.2148709222
H       -2.7069819976    0.4493585823   -1.2129749261
H       -1.6130775715   -0.8185817660   -1.8209290663
H       -2.0325941114   -3.2184233355   -1.0859138716
H       -3.3982299880   -3.5366888735    0.0099935024
H        1.4952795215   -2.7963869263   -2.5125280845
H        2.6639647225   -3.8225975352   -1.6195407853
H        2.7395736304   -2.0470563138   -1.5114167919
H        0.7212875716   -2.2341193696    2.3230840445
H       -0.2932185799   -0.8287346889    2.6958241735
H        1.1221949056   -0.6420131617    1.6505223491
H       -3.8003249875   -1.1897963918    0.1314244798
H       -3.8093272114   -1.6692574655   -1.4400625520
27   
torsion grid (180,)
C        1.0777237754   -2.9588459735   -0.4230405526
C       -1.2722579827   -0.2321519432    0.2812459084
C       -1.6055396433   -2.6140836688    0.9880657392
C       -2.1528307061   -0.4579667056   -0.9421172394
C       -2.4830456306   -2.8701110416   -0.2280854196
C       -0.5541292829   -1.5171294322    0.7284599999
C        1.9921245828   -2.9663519953   -1.6182459149
C        0.3120343706   -1.2535775289    1.9577008911
N       -3.1498262317   -1.5729873837   -0.6653942383
O        1.0372402225   -3.7996318143    0.4482637444
O        0.2687333597   -1.8456051221   -0.4365781353
H       -0.5342155265    0.5323105383    0.0242432544
H       -1.8665504071    0.1602214765    1.1142310409
H       -2.2241619525   -2.3090466527    1.8412411295
H       -1.1160798913   -3.5489411877    1.2619556982
H       -2.7293072358    0.4295267532   -1.2107341485
H       -1.5640857674   -0.7811438473   -1.8013581958
H       -1.9025662339   -3.2167682875   -1.0845102925
H       -3.2797503720   -3.5878468851   -0.0229250549
H        1.4525911275   -2.7011402330   -2.5307639223
H        2.4511472278   -3.9493615081   -1.7167438782
H        2.7761178200   -2.2164576991   -1.4712709227
H        0.8037262146   -2.1655503712    2.2966881871
H       -0.3049696961   -0.8685673539    2.7754159940
H        1.0747076373   -0.5052068991    1.7247611108
H       -3.7959462353   -1.2684941287    0.0721349982
H       -3.7228742609   -1.7398019210   -1.5001837440
