14   
torsion grid (-165,)
C        0.1617441999   -1.8697492584    0.4228239900
C       -2.0324583705    1.3068665601   -0.9441255464
C       -0.4938688617    0.4015365878    0.6062987462
O        0.4673664445    0.8018926448    1.5323458951
O       -0.0414526153   -0.6259613415   -0.2478558527
O       -0.8324616988    1.4911010507   -0.1915655000
H        0.4625268967   -2.5893112691   -0.3407781274
H       -0.7652605429   -2.2183553931    0.9003794771
H        0.9463131703   -1.7895494781    1.1833571917
H       -2.2276541956    2.2537914169   -1.4501458938
H       -2.8764821046    1.0726987597   -0.2804678165
H       -1.9182151015    0.5083133781   -1.6847714219
H       -1.3518418710    0.0470197712    1.2003464526
H        1.1816373076    1.2301041668    1.0275550381
14   
torsion grid (-150,)
C        0.2386170324   -1.8923709491    0.4447182579
C       -2.0605792074    1.3740987999   -0.9188445232
C       -0.4892375133    0.3612526393    0.5335947823
O        0.3774896535    0.7818528679    1.5439777235
O        0.0497401019   -0.6676161659   -0.2644949146
O       -0.7706820216    1.4315720436   -0.3117237690
H        0.6066875168   -2.6184531481   -0.2823911376
H       -0.7093649194   -2.2556935338    0.8674634957
H        0.9680442029   -1.7777598014    1.2540092605
H       -2.1647277226    2.2836320532   -1.5127592368
H       -2.8515279541    1.3492902261   -0.1570082226
H       -2.1541025638    0.4998480773   -1.5741593775
H       -1.3910097531    0.0027783497    1.0544140466
H        1.1302114217    1.2183712656    1.1066485734
14   
torsion grid (-135,)
C        0.3136009987   -1.9224557372    0.4766548222
C       -2.0885142448    1.4463036968   -0.8998732080
C       -0.5099387617    0.2977428807    0.4533639975
O        0.2659516707    0.7501637097    1.5272895434
O        0.1155479290   -0.7276239462   -0.2797921789
O       -0.7427019671    1.3419715783   -0.4402515577
H        0.7489632077   -2.6530027101   -0.2075103397
H       -0.6412556001   -2.3120998239    0.8588328006
H        0.9918138748   -1.7553036743    1.3204117292
H       -2.1222860857    2.3106853174   -1.5652674541
H       -2.7814808620    1.6095987775   -0.0639162461
H       -2.3902140692    0.5516140495   -1.4590734203
H       -1.4414077651   -0.0714699174    0.9076480436
H        1.0332607168    1.2111499493    1.1439084859
14   
torsion grid (-120,)
C        0.0055835551   -1.7086511997    0.0432547812
C       -1.9640937126    1.0291266680   -0.6984260432
C       -0.2354416411    0.5005376640    0.8805906731
O        0.4620701480    1.4547826768    1.6028540911
O        0.5931949902   -0.6276617202    0.7632109919
O       -0.5689430368    0.9809646942   -0.4085810213
H        0.7163451584   -2.5354691283    0.0918227132
H       -0.1740406431   -1.4403939410   -1.0034069039
H       -0.9406658758   -2.0254017501    0.5066282926
H       -2.0555932309    1.4087637808   -1.7178842890
H       -2.4937548402    1.7077389511   -0.0170617528
H       -2.4258466189    0.0339248049   -0.6475595135
H       -1.1461520914    0.2672696447    1.4508382428
H        1.2901423112    1.6240695093    1.1205830636
14   
torsion grid (-105,)
C        0.0787778811   -1.7883645550    0.0533307545
C       -1.9844535783    1.1282361884   -0.6901070018
C       -0.2796622289    0.4214283063    0.8321744508
O        0.3439986205    1.4236668663    1.5624082779
O        0.6097730856   -0.6570266685    0.7422554050
O       -0.6023787813    0.8501312169   -0.4766565685
H        0.8320989902   -2.5747528896    0.1254328905
H       -0.1173260491   -1.5577661184   -0.9987137106
H       -0.8493026683   -2.1387551706    0.5286343915
H       -2.0845101037    1.4215107285   -1.7369042515
H       -2.3342673801    1.9510889075   -0.0534105756
H       -2.6051878713    0.2403832566   -0.5078057436
H       -1.1909925892    0.1457252596    1.3829005251
H        1.1684505819    1.6393724729    1.0925300778
14   
torsion grid (-90,)
C        0.1588948346   -1.8515258187    0.0630269003
C       -1.9938460928    1.2290816853   -0.6795445135
C       -0.3356683234    0.3507660191    0.7857192853
O        0.2121053759    1.4035020289    1.5102021890
O        0.6177549089   -0.6683054669    0.7183392251
O       -0.6662759400    0.7277009679   -0.5351944426
H        0.9571831264   -2.5885628009    0.1662967167
H       -0.0433212405   -1.6666883412   -0.9963724719
H       -0.7503721632   -2.2391089084    0.5449419662
H       -2.1268560812    1.4595827533   -1.7382221409
H       -2.1454558664    2.1417817838   -0.0898238310
H       -2.7373653635    0.4773898494   -0.3804684238
H       -1.2368209549    0.0292116721    1.3300551690
H        1.0402883065    1.6474015940    1.0607539759
14   
torsion grid (-75,)
C        0.2368879353   -1.8947106797    0.0696554481
C       -1.9952831846    1.3173380034   -0.6641522195
C       -0.3968911898    0.2851362496    0.7519989280
O        0.0759283201    1.3878452628    1.4579264022
O        0.6193033820   -0.6675607770    0.6952925310
O       -0.7604584131    0.6073596989   -0.5735546786
H        1.0777591861   -2.5784033922    0.1987440323
H        0.0317499659   -1.7510291554   -0.9951926343
H       -0.6511518330   -2.3217410517    0.5568284188
H       -2.1826009051    1.4831372565   -1.7266150145
H       -1.9394524118    2.2823494758   -0.1472177827
H       -2.8219892769    0.7294018758   -0.2409080681
H       -1.2746516644   -0.0835910442    1.3065663843
H        0.9135934713    1.6480309657    1.0352954243
14   
torsion grid (-60,)
C        0.3036417725   -1.9222979524    0.0757717312
C       -1.9801702222    1.3897066912   -0.6534221673
C       -0.4601862030    0.2189661055    0.7465373059
O       -0.0583183026    1.3599651381    1.4359895990
O        0.6127317207   -0.6653117791    0.6841196156
O       -0.8744931652    0.4901577101   -0.5766333787
H        1.1864025960   -2.5501673217    0.2082961149
H        0.0842371114   -1.8046483909   -0.9892646483
H       -0.5536482384   -2.3961920571    0.5737269152
H       -2.2488591361    1.4603570507   -1.7090112519
H       -1.7158456814    2.3807889733   -0.2705162686
H       -2.8423279543    1.0083434817   -0.0874201705
H       -1.3043057551   -0.1986826901    1.3200126344
H        0.7887568365    1.6382337947    1.0439903086
14   
torsion grid (-45,)
C        0.3676632666   -1.9202977208    0.0696432770
C       -1.9560642634    1.4447066612   -0.6664320790
C       -0.5210769260    0.1675229632    0.7582468493
O       -0.1790127763    1.3390246804    1.4275754909
O        0.6051831242   -0.6445278996    0.6722620296
O       -1.0061041414    0.3851513669   -0.5543582302
H        1.2932402998   -2.4872659370    0.1827188054
H        0.1181632709   -1.8174156801   -0.9901867343
H       -0.4453680928   -2.4492040776    0.5855787120
H       -2.3188058750    1.4200782563   -1.6958779625
H       -1.5018719395    2.4177255532   -0.4567155890
H       -2.8037630803    1.2978848935    0.0176959082
H       -1.3162956143   -0.3000156703    1.3622321227
H        0.6712734790    1.6365255260    1.0567745580
14   
torsion grid (-30,)
C        0.4010925605   -1.9119150934    0.0519291069
C       -1.9303274599    1.4767325718   -0.6793835325
C       -0.5871874901    0.1146389295    0.7952030987
O       -0.2805778483    1.3051004841    1.4451838097
O        0.5835813696   -0.6288105639    0.6580567066
O       -1.1603387557    0.2896132370   -0.4922863149
H        1.3650118059   -2.4194232754    0.1169875450
H        0.0978953763   -1.8151892940   -0.9943908038
H       -0.3526527634   -2.4961516902    0.5971964325
H       -2.3804961795    1.3858625099   -1.6701707136
H       -1.3089168572    2.3768767503   -0.6422505643
H       -2.7259371942    1.5688160477    0.0714287051
H       -1.3188889266   -0.4028936628    1.4355496464
H        0.5738096097    1.6086318649    1.0895116193
14   
torsion grid (-15,)
C        0.4351302389   -1.8658099626    0.0411374797
C       -1.9183764635    1.4744683283   -0.7179347432
C       -0.6676753915    0.0836740562    0.8388933716
O       -0.4007013292    1.2924773956    1.4709621271
O        0.5506777974   -0.5754836089    0.6475242280
O       -1.3260560710    0.2118325321   -0.4147199109
H        1.4379664940   -2.2961691557    0.0460353587
H        0.0650788960   -1.7878998528   -0.9851403998
H       -0.2377115044   -2.5104139156    0.6230412517
H       -2.4402058584    1.3319926772   -1.6667501279
H       -1.1683942298    2.2641603004   -0.8369570698
H       -2.6374614581    1.7844712395    0.0491101482
H       -1.3263393236   -0.4894987892    1.5075274152
H        0.4573934226    1.6025096021    1.1313985779
14   
torsion grid (0,)
C        0.4435193011   -1.8252705379    0.0118192735
C       -1.8647880156    1.4654656799   -0.7346367243
C       -0.7271108083    0.0519155812    0.8948705519
O       -0.4715981159    1.2664538945    1.5212636067
O        0.5199962985   -0.5395895028    0.6324596376
O       -1.4707318345    0.1607523101   -0.3087816072
H        1.4688241718   -2.1922511342   -0.0593802978
H       -0.0003997034   -1.7565823358   -0.9855868825
H       -0.1468575295   -2.5196082903    0.6253117712
H       -2.4703367854    1.3074187459   -1.6296479420
H       -1.0040704022    2.0931734279   -0.9956413025
H       -2.4614771735    1.9790223151    0.0258039297
H       -1.3170507819   -0.5692431543    1.5819445268
H        0.4007459653    1.5617113621    1.2074409145
14   
torsion grid (15,)
C        0.4325399799   -1.7557233436   -0.0046051488
C       -1.8264332196    1.4345883695   -0.7559176123
C       -0.8016233200    0.0462638998    0.9552345001
O       -0.5639399361    1.2654893420    1.5828230033
O        0.4677528868   -0.4718095434    0.6219492310
O       -1.6211299934    0.1373870725   -0.1928210259
H        1.4719361254   -2.0553513651   -0.1493228814
H       -0.0820269974   -1.7110453509   -0.9691532155
H       -0.0687915398   -2.4908402168    0.6398362304
H       -2.4813507624    1.2773201622   -1.6153547015
H       -0.8888195586    1.8864573144   -1.1041064961
H       -2.3075807458    2.1098918399   -0.0428990418
H       -1.3244113776   -0.6218189899    1.6506997333
H        0.3231035927    1.5496509901    1.3035368236
14   
torsion grid (30,)
C        0.3557371416   -1.5888795952   -0.0015961890
C       -1.8472683764    1.4505592447   -0.7910214345
C       -0.9309128699    0.1444348874    1.0171573251
O       -0.7198039717    1.3692844250    1.6479482394
O        0.3516397383   -0.3010821106    0.6165785109
O       -1.8154774416    0.2128140024   -0.0739214102
H        1.4002478907   -1.8276590216   -0.2093208031
H       -0.2183670399   -1.5831570200   -0.9334293139
H       -0.0607704304   -2.3483673915    0.6741553781
H       -2.5385878766    1.2909683833   -1.6206070076
H       -0.8610539637    1.7124905180   -1.1953174328
H       -2.2090370163    2.2644690065   -0.1571890583
H       -1.3886304718   -0.5620569807    1.7193949100
H        0.1728898626    1.6587154610    1.3947009705
14   
torsion grid (45,)
C        0.4238662098   -1.4459380142    0.0271445843
C       -1.7347069913    1.4186277869   -0.7164265564
C       -0.8161576484    0.2481070849    1.1579406198
O       -0.5883643220    1.4800147247    1.7765553835
O        0.4345202034   -0.1509390309    0.6303553750
O       -1.8145680294    0.3017304214    0.1767098129
H        1.4481856203   -1.6462021874   -0.2916425258
H       -0.2479813047   -1.4757321199   -0.8367177865
H        0.1133279353   -2.2118719774    0.7505627199
H       -2.5124475754    1.2570997982   -1.4648224226
H       -0.7587442388    1.4652531941   -1.2150202350
H       -1.9205371311    2.3565227902   -0.1855487975
H       -1.1839664017   -0.4791654876    1.8914467729
H        0.3079911858    1.7564074639    1.5232263832
14   
torsion grid (60,)
C        0.5261125763   -1.4906176579   -0.0613064023
C       -1.6029746483    1.2595990440   -0.7392793653
C       -0.7047200981    0.1349591810    1.1613029695
O       -0.4838417579    1.3330163547    1.8543642300
O        0.5209876908   -0.1935456600    0.5378458215
O       -1.7695624125    0.2537657620    0.2706232471
H        1.5218896339   -1.6331527674   -0.4842379899
H       -0.2265988359   -1.5635839826   -0.8537715857
H        0.3346333639   -2.2700198214    0.6884596784
H       -2.4967302767    1.2040534289   -1.3626495959
H       -0.7153593753    1.0648249520   -1.3509402536
H       -1.5263189689    2.2536039771   -0.2893097592
H       -1.0114462382   -0.6642620556    1.8497267432
H        0.4749043622    1.4871510392    1.8490766754
14   
torsion grid (75,)
C        0.4688125641   -1.4038640338   -0.1386689990
C       -1.6184474619    1.2219445558   -0.8624200135
C       -0.7772632927    0.1813106754    1.1109124770
O       -0.5654518642    1.3332659305    1.8847821934
O        0.4340256979   -0.1001995779    0.4462080187
O       -1.8678214764    0.3737042849    0.2671210412
H        1.4519428050   -1.5113291565   -0.5996553761
H       -0.3097045505   -1.5200535689   -0.9012057820
H        0.3383907867   -2.1811225057    0.6260821262
H       -2.5864173206    1.3618525756   -1.3463370310
H       -0.9201738323    0.7561649550   -1.5653617164
H       -1.2224689069    2.1924508192   -0.5471752211
H       -1.0653676709   -0.6683399163    1.7472834222
H        0.3878200182    1.3805605246    2.0650101193
14   
torsion grid (90,)
C       -0.0055644571   -1.8974419114    0.5249422321
C       -1.7861371529    1.4038833593   -1.0038171539
C       -0.7182747925    0.3360903793    0.8772003564
O        0.5829472830    0.8594587485    1.0376232113
O       -0.7319039791   -0.7762430602    0.0185801845
O       -1.6332178191    1.2804612787    0.4145554849
H       -0.1401917011   -2.7041667803   -0.1976961133
H       -0.4039553881   -2.2137137575    1.4985208031
H        1.0596514034   -1.6680040398    0.6328167052
H       -2.4552670197    2.2534909924   -1.1506776097
H       -2.2252885194    0.5021190572   -1.4378597854
H       -0.8336130508    1.6155140368   -1.5082696603
H       -1.0322703775    0.0643454829    1.8905033557
H        0.9040921421    1.1347161803    0.1616000520
14   
torsion grid (105,)
C       -0.0115583204   -1.8875688670    0.4824937318
C       -1.8159179128    1.3600397944   -1.0160098889
C       -0.6773284410    0.3501140993    0.8779922383
O        0.6237551541    0.8218570404    1.1463641698
O       -0.6765589010   -0.7280996500   -0.0216465336
O       -1.5037083379    1.3622133633    0.3829729137
H       -0.1216233014   -2.6614978247   -0.2790988880
H       -0.4770166895   -2.2299591592    1.4168140637
H        1.0499258512   -1.6897494872    0.6627316380
H       -2.3971932393    2.2696045020   -1.1783913028
H       -2.4086830418    0.4844845230   -1.2933496384
H       -0.9167879130    1.3919755756   -1.6432817695
H       -1.0657354279    0.0453065547    1.8568722336
H        0.9523732125    1.2504696417    0.3372487906
14   
torsion grid (120,)
C        0.0037573487   -1.8598077225    0.4715224436
C       -1.8551129999    1.3304987359   -1.0177323713
C       -0.6376157499    0.3823540462    0.8725597210
O        0.6437780026    0.8229711437    1.2457672778
O       -0.5919974093   -0.6729777683   -0.0541361834
O       -1.3760962534    1.4407331700    0.3291311539
H       -0.0617196368   -2.6126013848   -0.3159640290
H       -0.5425937688   -2.2132069645    1.3568496813
H        1.0515952730   -1.6915022756    0.7400921974
H       -2.3725902085    2.2725165801   -1.2092875895
H       -2.5531034721    0.4959736111   -1.1314718636
H       -1.0386407292    1.2099468966   -1.7373268683
H       -1.1067113127    0.0530132164    1.8089770605
H        0.9961256372    1.3353494864    0.4974748710
14   
torsion grid (135,)
C        0.0257578119   -1.8464315779    0.4600478337
C       -1.8878676722    1.3044501994   -1.0174665339
C       -0.6006208546    0.4023381484    0.8469463639
O        0.6454832233    0.8188714702    1.3305750485
O       -0.4895663810   -0.6367062953   -0.0962722257
O       -1.2468424071    1.4936610037    0.2507825519
H        0.0193946782   -2.5840855066   -0.3443237205
H       -0.6101042236   -2.2025794986    1.2825163914
H        1.0469955483   -1.7086083470    0.8301014362
H       -2.3368326037    2.2714643747   -1.2528631843
H       -2.6712704154    0.5409160125   -0.9657595491
H       -1.1737439733    1.0287070834   -1.7981095386
H       -1.1566586298    0.0550285349    1.7294817315
H        1.0498912536    1.3534023458    0.6248927051
14   
torsion grid (150,)
C        0.0508787431   -1.8430607614    0.4391560286
C       -1.9149697847    1.2870909696   -1.0062636459
C       -0.5621440674    0.4142931348    0.8035270615
O        0.6369611894    0.8078646954    1.4006813768
O       -0.3760996373   -0.6121367138   -0.1441479305
O       -1.1155576052    1.5267639170    0.1585194627
H        0.1150006327   -2.5662898114   -0.3756926153
H       -0.6761821268   -2.1996074806    1.1822522380
H        1.0298176094   -1.7360024753    0.9182222637
H       -2.3107704990    2.2646908693   -1.2886522382
H       -2.7483906119    0.6078474733   -0.7902314629
H       -1.3210028890    0.8740891542   -1.8248820001
H       -1.2062111595    0.0580153857    1.6219706708
H        1.1153354619    1.3277119141    0.7308355438
14   
torsion grid (165,)
C        0.0803535486   -1.8356418186    0.4289983715
C       -1.9452937768    1.2822489611   -0.9874218786
C       -0.5287241611    0.4319271028    0.7495694966
O        0.6051266769    0.8140343407    1.4629463042
O       -0.2558591341   -0.5915693419   -0.1840166125
O       -0.9976129321    1.5475323444    0.0529348664
H        0.2221025547   -2.5531092718   -0.3812280365
H       -0.7310649792   -2.1860883734    1.0825689624
H        1.0018614472   -1.7534084632    1.0155076310
H       -2.2935787750    2.2601103273   -1.3254461572
H       -2.8001591453    0.7066706930   -0.6085049442
H       -1.4866670008    0.7389820894   -1.8168216999
H       -1.2573720652    0.0742277138    1.4944072123
H        1.1692380135    1.3009365685    0.8362254559
14   
torsion grid (180,)
C        0.1085862323   -1.8456983235    0.4204069255
C       -1.9896423461    1.2880706989   -0.9561920516
C       -0.5087914897    0.4280121227    0.6883646593
O        0.5443717302    0.8096931138    1.5154382758
O       -0.1463496357   -0.5937060061   -0.2158138286
O       -0.9063957087    1.5369186477   -0.0559316922
H        0.3318329264   -2.5590556414   -0.3749529843
H       -0.7728022230   -2.1928862897    0.9782538940
H        0.9610122262   -1.7779599098    1.1052760571
H       -2.2726147636    2.2592975693   -1.3659316482
H       -2.8496855919    0.8577567928   -0.4243283085
H       -1.6895215335    0.6135496964   -1.7627491712
H       -1.3101983498    0.0714152428    1.3558595008
H        1.1936422006    1.2589366993    0.9454542734
