21   
torsion grid (-165,)
C        1.0881092087    0.2984843977    1.8888357541
C        1.3322337024   -0.2014566272    3.1675846188
C       -0.0496179245   -1.7665467129    1.4009174363
C        0.3815316945   -0.5048582683    1.0043561018
C        0.8561712966   -1.4777339410    3.5145035905
C        1.5669771596   -1.3750709483    6.0433859503
C        0.3060509133   -3.3838418650    5.2097643592
C        1.7123505966   -3.5637416547    4.7644546958
C        1.1388898659   -2.1392928465    4.8349391596
N        0.1879807722   -2.2373320995    2.6277634468
O        2.0982119761   -1.8728983646    7.0209659714
O        1.2518734545   -0.0494579241    6.0150947358
F        0.1149251800   -0.0679772141   -0.2508448149
H        1.4365205729    1.2805633603    1.5827953917
H        1.8772027417    0.3987055002    3.8835648628
H       -0.5951649087   -2.4044552291    0.7079224832
H       -0.4872295808   -3.6168850629    4.5094138078
H        0.0861251154   -3.5002522359    6.2652571079
H        2.4628094029   -3.8085275685    5.5076162380
H        1.8778281414   -3.9316482996    3.7577679096
H        1.5378775255    0.3023199455    6.8805364721
21   
torsion grid (-150,)
C        1.2235800545    0.2098883883    1.8417163386
C        1.4722145314   -0.3160818724    3.1073208808
C       -0.2429176409   -1.6644285371    1.4603165938
C        0.3458905355   -0.4850285955    1.0183097745
C        0.8297873048   -1.5021807765    3.5037720583
C        1.4306499229   -1.3526713642    6.0389783297
C        0.3966683233   -3.4728922152    5.1613684187
C        1.8305033587   -3.5219718122    4.7658492998
C        1.1199468973   -2.1594899542    4.8233054169
N       -0.0022189852   -2.1587564900    2.6793378700
O        1.9138128570   -1.8026917416    7.0636329495
O        1.0714662062   -0.0424541208    5.9416303771
F        0.0661095152   -0.0194180664   -0.2234762560
H        1.6946433007    1.1256103824    1.4967981506
H        2.1512181008    0.1934939492    3.7801619189
H       -0.9221741445   -2.2159247898    0.8129900944
H       -0.3507961872   -3.7721731300    4.4367666613
H        0.1553908533   -3.6185178528    6.2084272553
H        2.5735909066   -3.7027272155    5.5348329834
H        2.0708727674   -3.8672343621    3.7655866020
H        1.2811956417    0.3500058854    6.8111921776
21   
torsion grid (-135,)
C        1.3133389659    0.1284051623    1.8075734945
C        1.5811422921   -0.4317371967    3.0533246639
C       -0.4251666267   -1.5259689302    1.5552145429
C        0.2868339398   -0.4393660631    1.0604836593
C        0.8136851918   -1.5193507112    3.5050707757
C        1.3104882457   -1.3444385286    6.0440258865
C        0.4999345183   -3.5476363833    5.1148455131
C        1.9509407896   -3.4668851336    4.7857545072
C        1.1152500953   -2.1767534163    4.8217125456
N       -0.1639236208   -2.0527030834    2.7579762464
O        1.7124234962   -1.7674509492    7.1143014481
O        0.9594462069   -0.0394853357    5.8794475644
F       -0.0196474801    0.0630334061   -0.1602818315
H        1.8770944956    0.9714744864    1.4192465191
H        2.3731306293   -0.0268464547    3.6740729325
H       -1.2224578778   -1.9746756641    0.9657798629
H       -0.1893748241   -3.9024053489    4.3581545670
H        0.2269661498   -3.7302338827    6.1481636309
H        2.6699259838   -3.5901417648    5.5886634150
H        2.2723498190   -3.7798509525    3.7973594254
H        1.0967558312    0.3804801155    6.7504670998
21   
torsion grid (-120,)
C        1.4122637611    0.0175625184    1.7628904131
C        1.6857294879   -0.5683655126    2.9955004279
C       -0.5451053638   -1.3928835103    1.6508087314
C        0.2711253125   -0.4139362062    1.0947159506
C        0.8145173474   -1.5433807156    3.5088232695
C        1.1649613514   -1.3411758682    6.0560124855
C        0.5844308906   -3.6051082595    5.0827301685
C        2.0447351759   -3.4066182275    4.8486029852
C        1.1044230534   -2.1922744173    4.8321277210
N       -0.2759089858   -1.9451702942    2.8407882773
O        1.4615968581   -1.7423915666    7.1680718667
O        0.8362200056   -0.0409738996    5.8264970695
F       -0.0479262609    0.1178046185   -0.1101179529
H        2.0533571024    0.7776008477    1.3261859845
H        2.5622802932   -0.2712827311    3.5629196736
H       -1.4335597990   -1.7322340271    1.1217470506
H       -0.0267156572   -4.0104834249    4.2848629527
H        0.2611881933   -3.8199572040    6.0951272207
H        2.7157966588   -3.4795740324    5.6979890626
H        2.4575702443   -3.6889402848    3.8850298748
H        0.8884075931    0.4014651968    6.6955996790
21   
torsion grid (-105,)
C        1.5115052222   -0.1278846472    1.6565270925
C        1.7820684481   -0.7309377555    2.8826743133
C       -0.6246531725   -1.2572752475    1.7027728661
C        0.2805337465   -0.4075296210    1.0737967122
C        0.8230696119   -1.5712836529    3.4684737414
C        1.0174018611   -1.3529820341    6.0196607033
C        0.6635859850   -3.6553077963    5.0177074009
C        2.1190386814   -3.3473883997    4.8778810418
C        1.0947663440   -2.2099407048    4.8000406009
N       -0.3557899437   -1.8281283878    2.8832418090
O        1.2334249730   -1.7361903662    7.1561926596
O        0.6714936934   -0.0668612956    5.7458278824
F       -0.0428813763    0.1462143333   -0.1197895970
H        2.2192768406    0.5318059198    1.1632941141
H        2.7253259525   -0.5510792304    3.3900901005
H       -1.5842072022   -1.4760648935    1.2381254519
H        0.1376511136   -4.1044992882    4.1827739923
H        0.2911104458   -3.9002619058    6.0060847570
H        2.7361650829   -3.3779289858    5.7697057394
H        2.6145910376   -3.5988588275    3.9451033946
H        0.6365039370    0.3884114013    6.6091345041
21   
torsion grid (-90,)
C        1.5558381173   -0.2811045191    1.5510341014
C        1.8384299700   -0.8889158457    2.7739481211
C       -0.7037411856   -1.1032557046    1.7963489621
C        0.2571619712   -0.4008037047    1.0724167838
C        0.8247670708   -1.5785118479    3.4535913643
C        0.8900923422   -1.3726673955    6.0060192426
C        0.7658215248   -3.6874384769    4.9733731299
C        2.1988200489   -3.2635799836    4.9113355486
C        1.0944141828   -2.2116234840    4.7874733675
N       -0.4223596407   -1.6820711841    2.9682140331
O        1.0316501604   -1.7615472057    7.1521897201
O        0.5312649728   -0.0951470650    5.7144466068
F       -0.0825136734    0.1648751655   -0.1110014717
H        2.3048581632    0.2654556417    0.9856638383
H        2.8336537802   -0.8272003968    3.2043087518
H       -1.7180844515   -1.1955749113    1.4125361644
H        0.3252915689   -4.1741568841    4.1099825268
H        0.3622811817   -3.9713094482    5.9389275123
H        2.7693118690   -3.2583465451    5.8340585532
H        2.7606868764   -3.4709469344    4.0057283016
H        0.4158443394    0.3527934531    6.5745159127
21   
torsion grid (-75,)
C        1.6010282340   -0.4017529614    1.4685684887
C        1.8919283894   -1.0143130347    2.6888688699
C       -0.7231001864   -0.9019031772    1.9041454496
C        0.2668365305   -0.3549401690    1.0886375152
C        0.8507979605   -1.5491134224    3.4582271640
C        0.7750664739   -1.3925857194    6.0114636284
C        0.8794672074   -3.6871470338    4.9332000775
C        2.2789417318   -3.1590585645    4.9637456201
C        1.1116886219   -2.1870511098    4.7906359305
N       -0.4336574877   -1.4886974654    3.0680276823
O        0.8091221885   -1.8215258456    7.1515616013
O        0.4462808211   -0.1057337637    5.7314601193
F       -0.0835166960    0.2255785617   -0.0844851782
H        2.3714051083    0.0288459857    0.8357217313
H        2.9158200212   -1.0685052908    3.0457358511
H       -1.7672497342   -0.8598063081    1.5992617161
H        0.5341643352   -4.1929300348    4.0376809015
H        0.4393076927   -4.0166420370    5.8677809918
H        2.7925595938   -3.1325566938    5.9187946273
H        2.9081546809   -3.3163277145    4.0933231491
H        0.2457431422    0.3120122544    6.5909591188
21   
torsion grid (-60,)
C        1.5258695853   -0.5579296265    1.3667793891
C        1.8527375021   -1.1464197482    2.5908959288
C       -0.7904992206   -0.7501420777    2.0225926429
C        0.1789663662   -0.3664306061    1.0959766009
C        0.8300842366   -1.5223755058    3.4704674572
C        0.6432820448   -1.4119371918    6.0218980404
C        0.9976859834   -3.6676425643    4.9155095611
C        2.3421114748   -3.0211937690    5.0292096697
C        1.1079110567   -2.1487767150    4.8040978724
N       -0.4684871611   -1.3178073683    3.1859734796
O        0.5489854722   -1.9000601308    7.1344042141
O        0.3819432301   -0.1030679254    5.7819169797
F       -0.2048641211    0.2012724404   -0.0730751723
H        2.2826108987   -0.2489190011    0.6517850057
H        2.8928821025   -1.2950982589    2.8616478274
H       -1.8455652222   -0.5901831041    1.8074112800
H        0.7530824063   -4.1888328586    3.9958403142
H        0.5342081071   -4.0464651879    5.8195669878
H        2.7985844668   -2.9655809070    6.0116299136
H        3.0345904087   -3.1201684719    4.1997973011
H        0.0972842014    0.2736737344    6.6364761518
21   
torsion grid (-45,)
C        1.5117468899   -0.6903802591    1.2750353376
C        1.8499663774   -1.2797305973    2.4954833213
C       -0.7493325681   -0.5338034492    2.1012479669
C        0.1878785777   -0.3190006637    1.0915584147
C        0.8559887882   -1.4825899055    3.4618359853
C        0.5246861076   -1.4840741325    5.9997519736
C        1.1359478559   -3.6587126588    4.8320385949
C        2.4077633652   -2.9065261674    5.0721952896
C        1.1220380042   -2.1323015006    4.7858063846
N       -0.4195972185   -1.1057137732    3.2601413814
O        0.2340378073   -2.0693288660    7.0276285027
O        0.4161976679   -0.1386144734    5.8778539413
F       -0.2016603954    0.2614071533   -0.0695156814
H        2.2474549427   -0.5129972465    0.4962258401
H        2.8796392215   -1.5599581590    2.6888615520
H       -1.7859587864   -0.2339933250    1.9580995699
H        1.0098736221   -4.1585022665    3.8772416574
H        0.6392766536   -4.1132106372    5.6820132855
H        2.7819804792   -2.8537115911    6.0891401668
H        3.1749747433   -2.9154296903    4.3057076889
H        0.0342137696    0.1770039600    6.7189614284
21   
torsion grid (-30,)
C        1.4484355776   -0.8762058741    1.2045796386
C        1.7883106000   -1.4613785637    2.4249460635
C       -0.7006012533   -0.3603515593    2.1710319575
C        0.1813921238   -0.3201839904    1.0937427598
C        0.8517786298   -1.4744845140    3.4694013095
C        0.3903296065   -1.5523726851    5.9793142344
C        1.2858676785   -3.6409229185    4.8160402323
C        2.4555191253   -2.7624232964    5.1456118233
C        1.1131605841   -2.1266553880    4.7920778523
N       -0.3691577461   -0.9288069637    3.3323464322
O       -0.1182885957   -2.2042944726    6.8720235728
O        0.4500531651   -0.1988081228    6.0126609111
F       -0.2035657973    0.2676779124   -0.0651107783
H        2.1412587842   -0.8416315453    0.3690385047
H        2.7750220767   -1.8935135839    2.5517013103
H       -1.6936606258    0.0767173938    2.0835380745
H        1.2720369088   -4.1327548486    3.8487511731
H        0.7906776607   -4.1674199436    5.6245034224
H        2.7604453724   -2.6921130684    6.1848023208
H        3.2687460244   -2.6661408020    4.4343792481
H       -0.0385758882    0.0734340378    6.8126418705
21   
torsion grid (-15,)
C        1.3471992626   -1.0206073471    1.1674269233
C        1.6755351702   -1.6236828121    2.3802365157
C       -0.6385060502   -0.1748437817    2.2435593414
C        0.1693352433   -0.2852973725    1.1161576959
C        0.8174960402   -1.4718122257    3.4826726968
C        0.2570588634   -1.6302632125    5.9597557099
C        1.4144852332   -3.6105081262    4.8216073582
C        2.4774902138   -2.6149914169    5.1886114185
C        1.0852892615   -2.1259402791    4.8023496198
N       -0.3176877694   -0.7591868426    3.4017952416
O       -0.4370264226   -2.3247451932    6.6765402458
O        0.4410553178   -0.3061564688    6.1830909894
F       -0.1981684315    0.3272185870   -0.0356350464
H        1.9801964428   -1.1096358039    0.2895021157
H        2.5895176366   -2.2039181207    2.4567625595
H       -1.5634711474    0.3973058941    2.2024444431
H        1.4760807506   -4.1003265654    3.8549973218
H        0.9558922740   -4.1942501089    5.6123768194
H        2.7510861530   -2.5230357126    6.2351652488
H        3.2899203461   -2.4152477468    4.4972208115
H       -0.1440411905   -0.0720528738    6.9286302515
21   
torsion grid (0,)
C        1.2338304100   -1.1200534006    1.1370663125
C        1.5585862240   -1.7570859884    2.3323491225
C       -0.5529296149   -0.0189329409    2.3258823393
C        0.1583591083   -0.2391388738    1.1514640205
C        0.7994556232   -1.4900014716    3.4856764832
C        0.1693642254   -1.7305291589    5.9207464775
C        1.5604170871   -3.5871152843    4.8278440421
C        2.5239115925   -2.4899466177    5.1912412166
C        1.0937193147   -2.1433562088    4.8000514904
N       -0.2330959395   -0.6329519416    3.4699423189
O       -0.7040123272   -2.4243446830    6.4008273804
O        0.4602655222   -0.4908338958    6.3862835333
F       -0.2011550270    0.4091060827    0.0169040003
H        1.7908915041   -1.2943248290    0.2212635663
H        2.3926772436   -2.4514668316    2.3585206493
H       -1.3965503861    0.6685309038    2.3370835403
H        1.6707641508   -4.0880488066    3.8713792478
H        1.1584139713   -4.2068112230    5.6223460463
H        2.7924093236   -2.3656598592    6.2358284842
H        3.3071684420   -2.2141475391    4.4914665401
H       -0.2110658806   -0.2908558104    7.0666033541
21   
torsion grid (15,)
C       -0.1007255555   -1.6104113259    1.1834911650
C        0.1130314463   -2.2630195062    2.3962715872
C        0.7339766989    0.3941306767    2.2330573731
C        0.2171897917   -0.2593387591    1.1187125465
C        0.6358294935   -1.5449606380    3.4851760848
C        1.1911075245   -1.2490150878    5.9507820914
C        0.2931480038   -3.5157423643    5.2089254153
C        1.7419111962   -3.4767143724    4.8149033539
C        0.9304603912   -2.1906115278    4.8033099636
N        0.9388684581   -0.2402043947    3.3912995250
O        2.1860490144   -1.2497065878    6.6493047730
O        0.1325946092   -0.4367856987    6.1891785271
F        0.0257203273    0.4279053740   -0.0336307257
H       -0.5038081161   -2.1241648810    0.3157667464
H       -0.1261493896   -3.3180700702    2.4831844561
H        0.9873461131    1.4513576630    2.1812566976
H       -0.4371039116   -3.9496010357    4.5333029311
H        0.0533941989   -3.6370782336    6.2607719743
H        2.4930270852   -3.5641670998    5.5924298920
H        2.0248521782   -3.8736154921    3.8451237970
H        0.3970918978    0.1455562953    6.9266680414
21   
torsion grid (30,)
C       -0.2735378010   -1.5788157702    1.2240127965
C       -0.0803410879   -2.2267692302    2.4447084054
C        0.9073799810    0.3057703724    2.1579115658
C        0.2327301420   -0.2926406594    1.0963704981
C        0.6133911262   -1.5708255894    3.4726031665
C        1.0420231425   -1.2873267259    5.9733842679
C        0.4117073475   -3.6051720997    5.1641156598
C        1.8545974985   -3.4077402833    4.8069412650
C        0.9110881307   -2.2107139532    4.7935602111
N        1.0937826510   -0.3246134127    3.3195784916
O        1.8783309128   -1.3873535399    6.8515725913
O        0.0476523102   -0.3675886440    6.0196837587
F        0.0707381552    0.3892680047   -0.0635780397
H       -0.8054101086   -2.0466873822    0.4008878879
H       -0.4744259887   -3.2275571521    2.5845292933
H        1.3033198908    1.3147033492    2.0572545276
H       -0.2465824956   -4.1131150858    4.4676084591
H        0.1647008307   -3.7639938148    6.2089127635
H        2.5917537549   -3.4287368166    5.6020421351
H        2.1927812938   -3.7528856342    3.8352119115
H        0.2176323276    0.1742867283    6.8136258816
21   
torsion grid (45,)
C       -0.4487697741   -1.4907906281    1.2970050608
C       -0.2506307679   -2.1402284681    2.5177167100
C        1.0634702672    0.2167271649    2.0854316736
C        0.2270536091   -0.2963798540    1.0948388433
C        0.6164396006   -1.5796279115    3.4646941483
C        0.8992645031   -1.3331322240    5.9962823319
C        0.5454376525   -3.6743351463    5.0883344514
C        1.9739593312   -3.3150871736    4.8205482992
C        0.9088968592   -2.2213703550    4.7869956209
N        1.2534709467   -0.4152959497    3.2444415295
O        1.5399415412   -1.5351771985    7.0122033938
O        0.0242770899   -0.3039464369    5.8854716001
F        0.0731252460    0.3838135668   -0.0671536514
H       -1.1111718018   -1.8866666184    0.5329182809
H       -0.7804055275   -3.0632066509    2.7264523193
H        1.5859190548    1.1584777754    1.9267700199
H       -0.0065249337   -4.2249283663    4.3344183487
H        0.2605062224   -3.8942872344    6.1117849559
H        2.6620234791   -3.2841972993    5.6579929715
H        2.3982067961   -3.5874626211    3.8597182705
H        0.0898664198    0.1953598585    6.7217788256
21   
torsion grid (60,)
C       -0.5496861365   -1.4063752349    1.3900000015
C       -0.3450218786   -2.0475036712    2.6141974310
C        1.2427849494    0.0911878204    2.0040410789
C        0.2670257605   -0.3238966376    1.0977886070
C        0.6621390979   -1.5896751344    3.4726052441
C        0.7646093577   -1.3651387214    6.0211522561
C        0.6725858692   -3.7098452549    5.0434939344
C        2.0800705893   -3.2232308705    4.9007446259
C        0.9305183749   -2.2226964180    4.8050269499
N        1.4351286611   -0.5320493763    3.1676449136
O        1.1956582933   -1.6393101245    7.1274236865
O        0.0245950304   -0.2527922967    5.7885542894
F        0.1183400560    0.3428198931   -0.0725407325
H       -1.3178257200   -1.7235565854    0.6909170553
H       -0.9739525377   -2.8837353293    2.9013913929
H        1.8755446664    0.9461132551    1.7721531083
H        0.2351690993   -4.2723032502    4.2252333903
H        0.3275651849   -3.9861021700    6.0340765127
H        2.6926461229   -3.1609108686    5.7932151291
H        2.6035432241   -3.4264552560    3.9723346999
H       -0.0225051997    0.2201308742    6.6414179686
21   
torsion grid (75,)
C       -0.7108361018   -1.3484233125    1.4946691408
C       -0.4643358708   -1.9804879405    2.7147901651
C        1.2994110514   -0.0648563071    1.8857597892
C        0.1967373371   -0.3784551642    1.0920788289
C        0.6652598218   -1.6225239868    3.4616315042
C        0.6556140408   -1.4414389941    6.0143297493
C        0.8122986920   -3.7615214302    4.9786893111
C        2.1770859733   -3.1514536499    4.9190787207
C        0.9534810604   -2.2506466945    4.7930828299
N        1.5277671323   -0.6780079248    3.0496613311
O        0.9549014215   -1.7622967358    7.1511818141
O       -0.0229540760   -0.2984489043    5.7393386288
F        0.0157205087    0.2729523783   -0.0821687332
H       -1.5723524116   -1.5888789717    0.8787472088
H       -1.1468224029   -2.7374069668    3.0888583753
H        2.0057730595    0.6980128814    1.5631675860
H        0.4603896661   -4.3219116335    4.1182304892
H        0.4466893154   -4.0980456268    5.9428981562
H        2.7387372573   -3.0693125612    5.8429592722
H        2.7619814321   -3.2733669756    4.0135145490
H       -0.1588702461    0.1450575133    6.5985803439
21   
torsion grid (90,)
C       -0.7622365215   -1.2304428946    1.5772190615
C       -0.5132701903   -1.8533949905    2.7998148519
C        1.4253245445   -0.2221452111    1.7767086637
C        0.2355232641   -0.4043127698    1.0752906517
C        0.7041119089   -1.6252981060    3.4562893754
C        0.5597685800   -1.5083143544    6.0110682659
C        0.9419673597   -3.7797186165    4.9240883842
C        2.2587823345   -3.0712898411    4.9574232222
C        0.9829967050   -2.2559585143    4.7894339446
N        1.6537449588   -0.8240182541    2.9485095755
O        0.7541629048   -1.8765325410    7.1563183717
O       -0.0904638099   -0.3505228632    5.7237387609
F        0.0572348786    0.2290256471   -0.1091625971
H       -1.6889525025   -1.3730674744    1.0292666843
H       -1.2556904292   -2.5073821768    3.2476964674
H        2.2036858699    0.4238641758    1.3747520348
H        0.6726187450   -4.3284969265    4.0268014090
H        0.5500956456   -4.1716942312    5.8566583125
H        2.7628027653   -2.9823039107    5.9133393678
H        2.8983494267   -3.1124934583    4.0824047114
H       -0.3081208501    0.0544908839    6.5852958114
21   
torsion grid (105,)
C       -0.8367883162   -1.0900231673    1.6833299164
C       -0.5822377902   -1.7010023333    2.9089786043
C        1.4756114208   -0.3873595652    1.6832662386
C        0.2233455366   -0.4254402394    1.0771171721
C        0.7007926744   -1.6184464570    3.4711521980
C        0.4559475267   -1.5841578416    6.0270837071
C        1.0568119749   -3.7831723730    4.8882320563
C        2.3095847327   -2.9764186805    4.9999291869
C        0.9820275764   -2.2548189147    4.8017770260
N        1.7079131294   -0.9745211662    2.8634806716
O        0.5934465745   -2.0012053333    7.1639093235
O       -0.2093259398   -0.4292318626    5.7581852760
F        0.0414111459    0.1879077522   -0.1172738534
H       -1.8125786291   -1.1231680639    1.2077874240
H       -1.3692750819   -2.2343358999    3.4340421440
H        2.3024042517    0.1300401131    1.2003327239
H        0.8650350122   -4.3165516685    3.9621531198
H        0.6561830183   -4.2336404881    5.7902841769
H        2.7644212927   -2.8818968838    5.9796308629
H        2.9839203972   -2.9309254565    4.1521703575
H       -0.4891439673   -0.0759114840    6.6245926959
21   
torsion grid (120,)
C       -0.8653301416   -0.9166058399    1.7881332310
C       -0.6242629990   -1.5171780957    3.0204636398
C        1.5152642529   -0.5403213073    1.6304646788
C        0.2364338178   -0.4236855471    1.0967634678
C        0.6899815164   -1.5926448437    3.5105522439
C        0.3447836560   -1.6796925004    6.0650752133
C        1.1523669310   -3.7734187844    4.8559057696
C        2.3331311565   -2.8848172263    5.0632800673
C        0.9649219340   -2.2491272189    4.8333490871
N        1.7347685602   -1.1143420949    2.8203633114
O        0.4358293722   -2.1666515287    7.1787246776
O       -0.3402442838   -0.5257332475    5.8406971010
F        0.0666078263    0.1707856716   -0.1090264301
H       -1.8635253079   -0.8312387845    1.3689687792
H       -1.4452912479   -1.9199132359    3.6055028436
H        2.3752106362   -0.1589795477    1.0832072242
H        1.0406798115   -4.2705276676    3.8972560808
H        0.7427228928   -4.2922788855    5.7161824645
H        2.7322492525   -2.8037782051    6.0681366189
H        3.0380786995   -2.7475223775    4.2517169027
H       -0.6732850322   -0.2427407581    6.7140943496
21   
torsion grid (135,)
C       -0.8734533452   -0.7672038910    1.8323525667
C       -0.6467213634   -1.3455979634    3.0779113136
C        1.5210492270   -0.7196217844    1.5366249163
C        0.2416570204   -0.4524437588    1.0631407322
C        0.6719661203   -1.5747301152    3.5074970359
C        0.2416185493   -1.7841778751    6.0559661143
C        1.2585070705   -3.7503133253    4.7915792431
C        2.3514523595   -2.7840349869    5.0950935701
C        0.9442594576   -2.2455659093    4.8237551327
N        1.7280824513   -1.2699775904    2.7393574190
O        0.2730312960   -2.3608363889    7.1294940608
O       -0.4305255025   -0.6112121507    5.8960347295
F        0.0835958645    0.1123446329   -0.1585899825
H       -1.8742214349   -0.5679289619    1.4606777522
H       -1.4828579035   -1.6117126849    3.7155401888
H        2.3923740291   -0.4806786067    0.9298780927
H        1.2327934143   -4.2051709982    3.8063671521
H        0.8490584180   -4.3389396498    5.6056261904
H        2.6923041982   -2.7152071265    6.1220634872
H        3.0769204090   -2.5554676866    4.3237150734
H       -0.8081045346   -0.4040998591    6.7726429730
21   
torsion grid (150,)
C       -0.8668263328   -0.6466655967    1.8655851083
C       -0.6498634135   -1.1869917704    3.1309454025
C        1.4874296523   -0.9462763833    1.4438389704
C        0.2308390937   -0.5270013044    1.0217154325
C        0.6485396849   -1.5737810652    3.5067623426
C        0.1618220696   -1.8748668053    6.0529291190
C        1.3823049637   -3.7047486466    4.7691268297
C        2.3730292986   -2.6580964463    5.1406524491
C        0.9291169476   -2.2364378119    4.8257492725
N        1.6866369285   -1.4588244098    2.6628804311
O        0.1517432348   -2.5291262537    7.0813557915
O       -0.5049083811   -0.6907746176    5.9607046994
F        0.0790921653   -0.0074392805   -0.2209098634
H       -1.8522894817   -0.3307583929    1.5362072054
H       -1.4785138622   -1.2993058840    3.8195478955
H        2.3463089852   -0.8631234518    0.7805187122
H        1.4364781730   -4.1253524698    3.7703127847
H        0.9956505282   -4.3514756866    5.5491745905
H        2.6655122315   -2.5859468360    6.1822834711
H        3.1017066097   -2.3494217954    4.4010029639
H       -0.9150842352   -0.5542773568    6.8366476865
21   
torsion grid (165,)
C       -0.8325656389   -0.4874615545    1.9125689260
C       -0.6308440715   -1.0065032108    3.1911174560
C        1.4208551505   -1.1545142188    1.3884594530
C        0.2190135267   -0.5651540029    1.0098187503
C        0.6121842762   -1.5746845396    3.5193780543
C        0.0797436974   -1.9866533857    6.0603529770
C        1.4951977791   -3.6511840388    4.7660077849
C        2.3745531603   -2.5304994163    5.1894028399
C        0.9007841704   -2.2352064181    4.8389276784
N        1.6056749667   -1.6484840096    2.6152449304
O        0.0683554647   -2.7092663703    7.0418397788
O       -0.6281311008   -0.8222479667    6.0381052520
F        0.0781941380   -0.0748835449   -0.2460813367
H       -1.7769587365   -0.0375421846    1.6206386239
H       -1.4277437769   -0.9606678908    3.9209902551
H        2.2449211072   -1.2270676156    0.6810266078
H        1.6189543203   -4.0339704304    3.7588857696
H        1.1477697037   -4.3488258867    5.5196064156
H        2.6320488743   -2.4517939311    6.2399152461
H        3.0899147862   -2.1421049466    4.4741803834
H       -1.0642253725   -0.7685720965    6.9107226109
21   
torsion grid (180,)
C        0.9304078815    0.4147125390    1.9537306424
C        1.1632151575   -0.0940586927    3.2327885068
C        0.2219078108   -1.7891377062    1.3030573569
C        0.4515823157   -0.4540325824    0.9849781274
C        0.9087794670   -1.4514566387    3.4953628799
C        1.6476531323   -1.4640800309    6.0479127915
C        0.1938165294   -3.3160775411    5.1581806633
C        1.5820530323   -3.6170789516    4.7365729425
C        1.1429331636   -2.1400972222    4.8158581829
N        0.4499335254   -2.2683671253    2.5264795218
O        1.9995035556   -2.0595462087    7.0524134554
O        1.6587297300   -0.1016977638    6.0155169887
F        0.2077764278   -0.0117010935   -0.2729982723
H        1.1155797433    1.4579384386    1.7148708417
H        1.5339946332    0.5594289035    4.0078306056
H       -0.1510118415   -2.4787282979    0.5477833304
H       -0.6005942706   -3.4672130873    4.4362206508
H       -0.0617718219   -3.4226576305    6.2065617818
H        2.2906629628   -3.9322380004    5.4934734990
H        1.7319424817   -3.9811597487    3.7270840772
H        1.9859873629    0.1707633245    6.8951436723
