21
0 1 C8H10O2S
C                     2.068044669199    -1.225345122135    -0.221174494213
C                     2.874903662923    -1.903548927826     0.699909331930
C                     0.844144317269    -0.689378874774     0.191381076405
C                     2.462706758035    -2.047042498850     2.026254100219
C                     0.430313524825    -0.834543624473     1.518706420648
C                     1.234921732076    -1.512034580835     2.446398119664
C                    -0.979986202790    -3.779189753367     2.948698001754
C                     0.766759262350    -1.691059596917     3.861657957569
O                     1.392023444330    -4.297320352722     4.030453538951
O                    -0.461986416041    -3.378177183455     5.531621793855
S                     0.234723055381    -3.408872880158     4.234383656024
H                     2.392380281510    -1.113518891257    -1.252426035771
H                     3.826248752447    -2.323001481993     0.383844256704
H                     0.214018541921    -0.157874051684    -0.516799946216
H                     3.078867504459    -2.593091731117     2.734340929296
H                    -0.521622867314    -0.413820346486     1.836034620710
H                    -1.333643910643    -4.788980671899     3.165245460398
H                    -1.803428202684    -3.066486599266     3.017761914372
H                    -0.495275425042    -3.740829480403     1.973327208511
H                    -0.083131845342    -1.053011117957     4.113427573065
H                     1.559514931978    -1.527599413011     4.597840572213
