
  -OEChem-12122420523D

 31 32  0     0  0  0  0  0  0999 V2000
    2.4895   -9.7405   -0.8109 C   0  0  0  0  0  0  0  0  0  0  0  0
    2.1214   -9.1467    0.3962 C   0  0  0  0  0  0  0  0  0  0  0  0
   -0.5538  -18.0032    0.9191 C   0  0  0  0  0  0  0  0  0  0  0  0
    0.2281  -19.1626    0.8546 C   0  0  0  0  0  0  0  0  0  0  0  0
    2.6742  -11.1266   -0.8625 C   0  0  0  0  0  0  0  0  0  0  0  0
    1.9653   -9.9221    1.5514 C   0  0  0  0  0  0  0  0  0  0  0  0
    0.0450  -16.7523    0.7962 C   0  0  0  0  0  0  0  0  0  0  0  0
    1.6017  -19.0080    0.6663 C   0  0  0  0  0  0  0  0  0  0  0  0
    2.5231  -11.9134    0.2791 C   0  0  0  0  0  0  0  0  0  0  0  0
    2.1871  -11.3040    1.5093 C   0  0  0  0  0  0  0  0  0  0  0  0
    1.4385  -16.7168    0.6041 C   0  0  0  0  0  0  0  0  0  0  0  0
    1.7278  -14.2235    0.5256 C   0  0  0  0  0  0  0  0  0  0  0  0
    1.5618  -11.6179    3.7923 C   0  0  0  0  0  0  0  0  0  0  0  0
    2.2035  -17.8181    0.5413 N   0  0  0  0  0  0  0  0  0  0  0  0
    2.7424  -13.3145    0.2279 N   0  0  0  0  0  0  0  0  0  0  0  0
    2.1772  -15.5369    0.4481 N   0  0  0  0  0  0  0  0  0  0  0  0
    0.5877  -13.8950    0.8230 O   0  0  0  0  0  0  0  0  0  0  0  0
    2.1297  -12.1281    2.5909 O   0  0  0  0  0  0  0  0  0  0  0  0
    2.6115   -9.1410   -1.7082 H   0  0  0  0  0  0  0  0  0  0  0  0
    1.9556   -8.0740    0.4498 H   0  0  0  0  0  0  0  0  0  0  0  0
   -1.6287  -18.0702    1.0680 H   0  0  0  0  0  0  0  0  0  0  0  0
   -0.2085  -20.1521    0.9488 H   0  0  0  0  0  0  0  0  0  0  0  0
    2.9218  -11.6117   -1.8041 H   0  0  0  0  0  0  0  0  0  0  0  0
    1.6933   -9.4399    2.4836 H   0  0  0  0  0  0  0  0  0  0  0  0
   -0.5179  -15.8307    0.8521 H   0  0  0  0  0  0  0  0  0  0  0  0
    2.2561  -19.8767    0.6122 H   0  0  0  0  0  0  0  0  0  0  0  0
    1.5168  -12.4627    4.4807 H   0  0  0  0  0  0  0  0  0  0  0  0
    0.5495  -11.2355    3.6175 H   0  0  0  0  0  0  0  0  0  0  0  0
    2.1856  -10.8277    4.2291 H   0  0  0  0  0  0  0  0  0  0  0  0
    3.4827  -13.6291   -0.3865 H   0  0  0  0  0  0  0  0  0  0  0  0
    3.1736  -15.7122    0.3830 H   0  0  0  0  0  0  0  0  0  0  0  0
  1  2  1  0  0  0  0
  1  5  2  0  0  0  0
  1 19  1  0  0  0  0
  2  6  2  0  0  0  0
  2 20  1  0  0  0  0
  3  4  1  0  0  0  0
  3  7  2  0  0  0  0
  3 21  1  0  0  0  0
  4  8  2  0  0  0  0
  4 22  1  0  0  0  0
  5  9  1  0  0  0  0
  5 23  1  0  0  0  0
  6 10  1  0  0  0  0
  6 24  1  0  0  0  0
  7 11  1  0  0  0  0
  7 25  1  0  0  0  0
  8 14  1  0  0  0  0
  8 26  1  0  0  0  0
  9 10  2  0  0  0  0
  9 15  1  0  0  0  0
 10 18  1  0  0  0  0
 11 14  2  0  0  0  0
 11 16  1  0  0  0  0
 12 15  1  0  0  0  0
 12 16  1  0  0  0  0
 12 17  2  0  0  0  0
 13 18  1  0  0  0  0
 13 27  1  0  0  0  0
 13 28  1  0  0  0  0
 13 29  1  0  0  0  0
 15 30  1  0  0  0  0
 16 31  1  0  0  0  0
M  END
$$$$
