
  -OEChem-12122420523D

 31 32  0     0  0  0  0  0  0999 V2000
   -9.9536  -11.4406   -0.2109 C   0  0  0  0  0  0  0  0  0  0  0  0
   -9.7632  -10.1131   -0.5877 C   0  0  0  0  0  0  0  0  0  0  0  0
   -5.1323  -17.0420    4.0270 C   0  0  0  0  0  0  0  0  0  0  0  0
   -3.8588  -16.9169    4.5941 C   0  0  0  0  0  0  0  0  0  0  0  0
   -8.9640  -12.1309    0.5003 C   0  0  0  0  0  0  0  0  0  0  0  0
   -8.5702   -9.4556   -0.2543 C   0  0  0  0  0  0  0  0  0  0  0  0
   -5.7129  -15.9586    3.3724 C   0  0  0  0  0  0  0  0  0  0  0  0
   -3.2149  -15.6849    4.4752 C   0  0  0  0  0  0  0  0  0  0  0  0
   -7.7700  -11.4860    0.8388 C   0  0  0  0  0  0  0  0  0  0  0  0
   -7.5818  -10.1360    0.4531 C   0  0  0  0  0  0  0  0  0  0  0  0
   -4.9713  -14.7645    3.3136 C   0  0  0  0  0  0  0  0  0  0  0  0
   -6.6226  -13.3609    2.0389 C   0  0  0  0  0  0  0  0  0  0  0  0
   -6.1078   -8.2366    0.4820 C   0  0  0  0  0  0  0  0  0  0  0  0
   -3.7491  -14.6271    3.8519 N   0  0  0  0  0  0  0  0  0  0  0  0
   -6.7056  -12.0716    1.5489 N   0  0  0  0  0  0  0  0  0  0  0  0
   -5.4157  -13.5897    2.6919 N   0  0  0  0  0  0  0  0  0  0  0  0
   -7.5027  -14.2087    1.9172 O   0  0  0  0  0  0  0  0  0  0  0  0
   -6.3723   -9.5919    0.8342 O   0  0  0  0  0  0  0  0  0  0  0  0
  -10.8760  -11.9543   -0.4670 H   0  0  0  0  0  0  0  0  0  0  0  0
  -10.5318   -9.5793   -1.1394 H   0  0  0  0  0  0  0  0  0  0  0  0
   -5.6755  -17.9813    4.0925 H   0  0  0  0  0  0  0  0  0  0  0  0
   -3.3797  -17.7429    5.1106 H   0  0  0  0  0  0  0  0  0  0  0  0
   -9.1047  -13.1612    0.7959 H   0  0  0  0  0  0  0  0  0  0  0  0
   -8.4256   -8.4223   -0.5490 H   0  0  0  0  0  0  0  0  0  0  0  0
   -6.6936  -16.0107    2.9207 H   0  0  0  0  0  0  0  0  0  0  0  0
   -2.2230  -15.5333    4.8982 H   0  0  0  0  0  0  0  0  0  0  0  0
   -5.1145   -8.0130    0.8734 H   0  0  0  0  0  0  0  0  0  0  0  0
   -6.8403   -7.5599    0.9375 H   0  0  0  0  0  0  0  0  0  0  0  0
   -6.1098   -8.1036   -0.6062 H   0  0  0  0  0  0  0  0  0  0  0  0
   -5.9256  -11.4426    1.6949 H   0  0  0  0  0  0  0  0  0  0  0  0
   -4.7305  -12.8458    2.7620 H   0  0  0  0  0  0  0  0  0  0  0  0
  1  2  1  0  0  0  0
  1  5  2  0  0  0  0
  1 19  1  0  0  0  0
  2  6  2  0  0  0  0
  2 20  1  0  0  0  0
  3  4  1  0  0  0  0
  3  7  2  0  0  0  0
  3 21  1  0  0  0  0
  4  8  2  0  0  0  0
  4 22  1  0  0  0  0
  5  9  1  0  0  0  0
  5 23  1  0  0  0  0
  6 10  1  0  0  0  0
  6 24  1  0  0  0  0
  7 11  1  0  0  0  0
  7 25  1  0  0  0  0
  8 14  1  0  0  0  0
  8 26  1  0  0  0  0
  9 10  2  0  0  0  0
  9 15  1  0  0  0  0
 10 18  1  0  0  0  0
 11 14  2  0  0  0  0
 11 16  1  0  0  0  0
 12 15  1  0  0  0  0
 12 16  1  0  0  0  0
 12 17  2  0  0  0  0
 13 18  1  0  0  0  0
 13 27  1  0  0  0  0
 13 28  1  0  0  0  0
 13 29  1  0  0  0  0
 15 30  1  0  0  0  0
 16 31  1  0  0  0  0
M  END
$$$$
