
  -OEChem-12102412483D

 27 28  0     1  0  0  0  0  0999 V2000
    0.9650    0.7987   -1.7121 C   0  0  0  0  0  0  0  0  0  0  0  0
   -0.5437   -1.6137   -4.0990 C   0  0  0  0  0  0  0  0  0  0  0  0
    0.7370   -1.9850   -3.3816 C   0  0  0  0  0  0  0  0  0  0  0  0
    1.0438    0.0649    1.1236 C   0  0  0  0  0  0  0  0  0  0  0  0
    1.1880    2.1531    2.2255 C   0  0  0  0  0  0  0  0  0  0  0  0
    0.4435   -0.5415   -3.7046 C   0  0  0  0  0  0  0  0  0  0  0  0
    2.0888    0.9861    1.7703 C   0  0  2  0  0  0  0  0  0  0  0  0
    0.4041    1.7227   -0.6381 C   0  0  0  0  0  0  0  0  0  0  0  0
    0.0118    0.9597    0.5746 N   0  0  2  0  0  0  0  0  0  0  0  0
    0.0762    0.3466   -2.6337 N   0  0  0  0  0  0  0  0  0  0  0  0
    2.1573    0.4644   -1.7101 O   0  0  0  0  0  0  0  0  0  0  0  0
   -0.1303    1.9305    1.6328 O   0  0  0  0  0  0  0  0  0  0  0  0
    3.1124    1.4265    0.8793 O   0  0  0  0  0  0  0  0  0  0  0  0
   -0.6408   -1.8441   -5.1553 H   0  0  0  0  0  0  0  0  0  0  0  0
   -1.4693   -1.6756   -3.5331 H   0  0  0  0  0  0  0  0  0  0  0  0
    0.6637   -2.2766   -2.3394 H   0  0  0  0  0  0  0  0  0  0  0  0
    1.5304   -2.4705   -3.9405 H   0  0  0  0  0  0  0  0  0  0  0  0
    1.4585   -0.5940    0.3613 H   0  0  0  0  0  0  0  0  0  0  0  0
    0.5518   -0.5431    1.8882 H   0  0  0  0  0  0  0  0  0  0  0  0
    1.0291    2.1782    3.3067 H   0  0  0  0  0  0  0  0  0  0  0  0
    1.6099    3.1052    1.8897 H   0  0  0  0  0  0  0  0  0  0  0  0
    1.0349   -0.0793   -4.4911 H   0  0  0  0  0  0  0  0  0  0  0  0
    2.5738    0.5038    2.6257 H   0  0  0  0  0  0  0  0  0  0  0  0
    1.1777    2.4677   -0.4255 H   0  0  0  0  0  0  0  0  0  0  0  0
   -0.4933    2.2452   -0.9807 H   0  0  0  0  0  0  0  0  0  0  0  0
   -0.8724    0.6968   -2.5955 H   0  0  0  0  0  0  0  0  0  0  0  0
    2.9661    1.0493   -0.0127 H   0  0  0  0  0  0  0  0  0  0  0  0
  1  8  1  0  0  0  0
  1 10  1  0  0  0  0
  1 11  2  0  0  0  0
  2  3  1  0  0  0  0
  2  6  1  0  0  0  0
  2 14  1  0  0  0  0
  2 15  1  0  0  0  0
  3  6  1  0  0  0  0
  3 16  1  0  0  0  0
  3 17  1  0  0  0  0
  4  7  1  0  0  0  0
  4  9  1  0  0  0  0
  4 18  1  0  0  0  0
  4 19  1  0  0  0  0
  5  7  1  0  0  0  0
  5 12  1  0  0  0  0
  5 20  1  0  0  0  0
  5 21  1  0  0  0  0
  6 10  1  0  0  0  0
  6 22  1  0  0  0  0
  7 13  1  0  0  0  0
  7 23  1  0  0  0  0
  8  9  1  0  0  0  0
  8 24  1  0  0  0  0
  8 25  1  0  0  0  0
  9 12  1  0  0  0  0
 10 26  1  0  0  0  0
 13 27  1  0  0  0  0
M  END
$$$$
