
  -OEChem-12122420523D

 27 28  0     1  0  0  0  0  0999 V2000
    0.1129   -1.6880   -3.2038 C   0  0  0  0  0  0  0  0  0  0  0  0
   -0.8563   -1.6006   -6.3462 C   0  0  0  0  0  0  0  0  0  0  0  0
   -0.6487   -0.1094   -6.5085 C   0  0  0  0  0  0  0  0  0  0  0  0
   -0.2678   -1.9470   -0.1408 C   0  0  0  0  0  0  0  0  0  0  0  0
   -1.4208   -0.0631   -1.0870 C   0  0  0  0  0  0  0  0  0  0  0  0
   -0.9914   -0.6864   -5.1555 C   0  0  0  0  0  0  0  0  0  0  0  0
   -1.6877   -1.4568   -0.4873 C   0  0  2  0  0  0  0  0  0  0  0  0
    1.1759   -1.4627   -2.1227 C   0  0  0  0  0  0  0  0  0  0  0  0
    0.6881   -1.0508   -0.8006 N   0  0  1  0  0  0  0  0  0  0  0  0
    0.0395   -0.7039   -4.1541 N   0  0  0  0  0  0  0  0  0  0  0  0
   -0.6232   -2.6756   -3.2021 O   0  0  0  0  0  0  0  0  0  0  0  0
   -0.0100    0.2101   -0.9136 O   0  0  0  0  0  0  0  0  0  0  0  0
   -2.4471   -1.4266    0.7270 O   0  0  0  0  0  0  0  0  0  0  0  0
   -1.7635   -2.0493   -6.7377 H   0  0  0  0  0  0  0  0  0  0  0  0
    0.0205   -2.2386   -6.3711 H   0  0  0  0  0  0  0  0  0  0  0  0
    0.3682    0.2419   -6.6586 H   0  0  0  0  0  0  0  0  0  0  0  0
   -1.4111    0.4742   -7.0154 H   0  0  0  0  0  0  0  0  0  0  0  0
   -0.1455   -1.8531    0.9420 H   0  0  0  0  0  0  0  0  0  0  0  0
   -0.0920   -2.9791   -0.4437 H   0  0  0  0  0  0  0  0  0  0  0  0
   -1.6858   -0.0202   -2.1500 H   0  0  0  0  0  0  0  0  0  0  0  0
   -1.9608    0.7139   -0.5403 H   0  0  0  0  0  0  0  0  0  0  0  0
   -1.9984   -0.5215   -4.7755 H   0  0  0  0  0  0  0  0  0  0  0  0
   -2.1652   -2.1106   -1.2219 H   0  0  0  0  0  0  0  0  0  0  0  0
    1.7054   -2.4083   -1.9787 H   0  0  0  0  0  0  0  0  0  0  0  0
    1.9074   -0.7120   -2.4356 H   0  0  0  0  0  0  0  0  0  0  0  0
    0.5322    0.1608   -3.9654 H   0  0  0  0  0  0  0  0  0  0  0  0
   -3.3863   -1.3617    0.4968 H   0  0  0  0  0  0  0  0  0  0  0  0
  1  8  1  0  0  0  0
  1 10  1  0  0  0  0
  1 11  2  0  0  0  0
  2  3  1  0  0  0  0
  2  6  1  0  0  0  0
  2 14  1  0  0  0  0
  2 15  1  0  0  0  0
  3  6  1  0  0  0  0
  3 16  1  0  0  0  0
  3 17  1  0  0  0  0
  4  7  1  0  0  0  0
  4  9  1  0  0  0  0
  4 18  1  0  0  0  0
  4 19  1  0  0  0  0
  5  7  1  0  0  0  0
  5 12  1  0  0  0  0
  5 20  1  0  0  0  0
  5 21  1  0  0  0  0
  6 10  1  0  0  0  0
  6 22  1  0  0  0  0
  7 13  1  0  0  0  0
  7 23  1  0  0  0  0
  8  9  1  0  0  0  0
  8 24  1  0  0  0  0
  8 25  1  0  0  0  0
  9 12  1  0  0  0  0
 10 26  1  0  0  0  0
 13 27  1  0  0  0  0
M  END
$$$$
