
  -OEChem-12102412483D

 27 28  0     1  0  0  0  0  0999 V2000
    0.1149   -0.6838   -3.8864 C   0  0  0  0  0  0  0  0  0  0  0  0
   -2.5528    1.4732   -5.3480 C   0  0  0  0  0  0  0  0  0  0  0  0
   -2.5498   -0.0061   -5.6769 C   0  0  0  0  0  0  0  0  0  0  0  0
   -1.1937   -0.7448   -1.0935 C   0  0  0  0  0  0  0  0  0  0  0  0
   -0.7967    1.4935   -0.3120 C   0  0  0  0  0  0  0  0  0  0  0  0
   -1.2539    0.7039   -5.3746 C   0  0  0  0  0  0  0  0  0  0  0  0
   -1.7928    0.3254   -0.1563 C   0  0  2  0  0  0  0  0  0  0  0  0
    0.8387   -0.7609   -2.5275 C   0  0  0  0  0  0  0  0  0  0  0  0
    0.1800   -0.2695   -1.3221 N   0  0  1  0  0  0  0  0  0  0  0  0
   -0.6017    0.4556   -4.1195 N   0  0  0  0  0  0  0  0  0  0  0  0
    0.2169   -1.6001   -4.7003 O   0  0  0  0  0  0  0  0  0  0  0  0
   -0.0063    1.1843   -1.4593 O   0  0  0  0  0  0  0  0  0  0  0  0
   -1.8210   -0.0334    1.2244 O   0  0  0  0  0  0  0  0  0  0  0  0
   -2.7359    2.1867   -6.1456 H   0  0  0  0  0  0  0  0  0  0  0  0
   -2.9366    1.7719   -4.3763 H   0  0  0  0  0  0  0  0  0  0  0  0
   -2.9151   -0.6946   -4.9222 H   0  0  0  0  0  0  0  0  0  0  0  0
   -2.7266   -0.3142   -6.7025 H   0  0  0  0  0  0  0  0  0  0  0  0
   -1.1538   -1.7262   -0.6135 H   0  0  0  0  0  0  0  0  0  0  0  0
   -1.7771   -0.8139   -2.0227 H   0  0  0  0  0  0  0  0  0  0  0  0
   -1.2679    2.4605   -0.4968 H   0  0  0  0  0  0  0  0  0  0  0  0
   -0.1724    1.5362    0.5872 H   0  0  0  0  0  0  0  0  0  0  0  0
   -0.5833    0.8740   -6.2141 H   0  0  0  0  0  0  0  0  0  0  0  0
   -2.7988    0.6023   -0.4944 H   0  0  0  0  0  0  0  0  0  0  0  0
    1.0590   -1.8170   -2.3573 H   0  0  0  0  0  0  0  0  0  0  0  0
    1.7972   -0.2383   -2.6118 H   0  0  0  0  0  0  0  0  0  0  0  0
   -0.5462    1.1923   -3.4234 H   0  0  0  0  0  0  0  0  0  0  0  0
   -2.5354   -0.6744    1.3615 H   0  0  0  0  0  0  0  0  0  0  0  0
  1  8  1  0  0  0  0
  1 10  1  0  0  0  0
  1 11  2  0  0  0  0
  2  3  1  0  0  0  0
  2  6  1  0  0  0  0
  2 14  1  0  0  0  0
  2 15  1  0  0  0  0
  3  6  1  0  0  0  0
  3 16  1  0  0  0  0
  3 17  1  0  0  0  0
  4  7  1  0  0  0  0
  4  9  1  0  0  0  0
  4 18  1  0  0  0  0
  4 19  1  0  0  0  0
  5  7  1  0  0  0  0
  5 12  1  0  0  0  0
  5 20  1  0  0  0  0
  5 21  1  0  0  0  0
  6 10  1  0  0  0  0
  6 22  1  0  0  0  0
  7 13  1  0  0  0  0
  7 23  1  0  0  0  0
  8  9  1  0  0  0  0
  8 24  1  0  0  0  0
  8 25  1  0  0  0  0
  9 12  1  0  0  0  0
 10 26  1  0  0  0  0
 13 27  1  0  0  0  0
M  END
$$$$
