27
0 1 C8H14N2O3
C                     3.965380109345    -1.926724804695    -2.078909862691
C                     2.823371232542    -2.024455506257    -3.070048655116
C                     3.345833274368    -0.673011153768    -2.649028339378
N                     2.550401290998     0.136949384630    -1.772714270534
C                     1.403931815441     0.750606964095    -2.170855747155
O                     0.951354254874     0.707936960799    -3.313899461745
C                     0.698219092293     1.573279513866    -1.090503857801
N                     1.131498845888     1.225438998172     0.270670947027
C                     0.601364591774     2.100303962850     1.323659342114
C                    -0.836350865191     1.626831681366     1.586424238737
H                    -1.095524246667     1.709026957130     2.648862833913
C                    -0.769955154029     0.156306205445     1.119770707243
O                     0.574051861477    -0.061426731861     0.627381578753
O                    -1.723808675826     2.430207371392     0.800590746785
H                     4.967181108176    -2.189994128910    -2.404991352331
H                     3.747804559925    -2.161683444478    -1.040593482573
H                     3.036061222157    -2.351391871096    -4.082968106360
H                     1.847406977640    -2.306143949269    -2.689824838384
H                     3.920023769691    -0.118758457629    -3.388201752489
H                     2.812561396278     0.248458437270    -0.799554612515
H                     0.963985069296     2.622497791207    -1.256307714656
H                    -0.380964897665     1.484919122510    -1.249837517819
H                     1.214432662534     1.961506320977     2.218214773839
H                     0.631293108524     3.147373648422     1.019021568289
H                    -0.919450711187    -0.565055033962     1.927108955599
H                    -1.506671353930    -0.022357287350     0.327026123878
H                    -2.632982892584     2.126199572452     0.948679502203
