27
0 1 C8H14N2O3
C                     0.326744035383     0.101007694940    -5.229882551158
C                     1.760899711959     0.485064569755    -4.934450942060
C                     0.909113853513    -0.135433821098    -3.856643151522
N                     0.445459873079     0.699658359054    -2.780226975339
C                     1.255332398723     1.100711749697    -1.764754868482
O                     2.467118386729     0.850029678036    -1.732278098874
C                     0.581762137481     1.881594344333    -0.643021734012
N                     0.204937347684     0.990755160114     0.484089857084
C                     1.284294129877     0.139470951081     1.010875853525
C                     2.220421892608     1.085937592942     1.776296657372
H                     2.708906360047     0.576672135353     2.613883728153
C                     1.206864597613     2.136113374112     2.277065836171
O                    -0.062955694160     1.855714631214     1.607720430527
O                     3.238788154298     1.678171364240     0.970940071835
H                     0.132811763895    -0.768645477475    -5.849935681723
H                    -0.395829951189     0.905412523513    -5.335293159244
H                     2.561640327022    -0.120392091179    -5.346166607901
H                     1.990871692631     1.539572169113    -4.827330006770
H                     1.140173901908    -1.158938409379    -3.570070725654
H                    -0.553072398122     0.816155674212    -2.657025186009
H                     1.285373603760     2.662315328250    -0.335940198660
H                    -0.339987102546     2.361505072021    -0.982558427375
H                     0.813127568752    -0.565752277855     1.701458706997
H                     1.783597202046    -0.420258903817     0.220631918236
H                     1.002720454818     2.061288822504     3.348254725783
H                     1.560058486933     3.143150274520     2.035452004490
H                     3.162966754535     1.360264127892     0.047842340105
