
  -OEChem-12122420523D

 27 28  0     1  0  0  0  0  0999 V2000
    3.9654   -1.9267   -2.0789 C   0  0  0  0  0  0  0  0  0  0  0  0
    2.8234   -2.0245   -3.0700 C   0  0  0  0  0  0  0  0  0  0  0  0
    3.3458   -0.6730   -2.6490 C   0  0  0  0  0  0  0  0  0  0  0  0
    2.5504    0.1369   -1.7727 N   0  0  0  0  0  0  0  0  0  0  0  0
    1.4039    0.7506   -2.1709 C   0  0  0  0  0  0  0  0  0  0  0  0
    0.9514    0.7079   -3.3139 O   0  0  0  0  0  0  0  0  0  0  0  0
    0.6982    1.5733   -1.0905 C   0  0  0  0  0  0  0  0  0  0  0  0
    1.1315    1.2254    0.2707 N   0  0  1  0  0  0  0  0  0  0  0  0
    0.6014    2.1003    1.3237 C   0  0  0  0  0  0  0  0  0  0  0  0
   -0.8364    1.6268    1.5864 C   0  0  2  0  0  0  0  0  0  0  0  0
   -1.0955    1.7090    2.6489 H   0  0  0  0  0  0  0  0  0  0  0  0
   -0.7700    0.1563    1.1198 C   0  0  0  0  0  0  0  0  0  0  0  0
    0.5741   -0.0614    0.6274 O   0  0  0  0  0  0  0  0  0  0  0  0
   -1.7238    2.4302    0.8006 O   0  0  0  0  0  0  0  0  0  0  0  0
    4.9672   -2.1900   -2.4050 H   0  0  0  0  0  0  0  0  0  0  0  0
    3.7478   -2.1617   -1.0406 H   0  0  0  0  0  0  0  0  0  0  0  0
    3.0361   -2.3514   -4.0830 H   0  0  0  0  0  0  0  0  0  0  0  0
    1.8474   -2.3061   -2.6898 H   0  0  0  0  0  0  0  0  0  0  0  0
    3.9200   -0.1188   -3.3882 H   0  0  0  0  0  0  0  0  0  0  0  0
    2.8126    0.2485   -0.7996 H   0  0  0  0  0  0  0  0  0  0  0  0
    0.9640    2.6225   -1.2563 H   0  0  0  0  0  0  0  0  0  0  0  0
   -0.3810    1.4849   -1.2498 H   0  0  0  0  0  0  0  0  0  0  0  0
    1.2144    1.9615    2.2182 H   0  0  0  0  0  0  0  0  0  0  0  0
    0.6313    3.1474    1.0190 H   0  0  0  0  0  0  0  0  0  0  0  0
   -0.9195   -0.5651    1.9271 H   0  0  0  0  0  0  0  0  0  0  0  0
   -1.5067   -0.0224    0.3270 H   0  0  0  0  0  0  0  0  0  0  0  0
   -2.6330    2.1262    0.9487 H   0  0  0  0  0  0  0  0  0  0  0  0
  1  2  1  0  0  0  0
  1  3  1  0  0  0  0
  1 15  1  0  0  0  0
  1 16  1  0  0  0  0
  2  3  1  0  0  0  0
  2 17  1  0  0  0  0
  2 18  1  0  0  0  0
  3  4  1  0  0  0  0
  3 19  1  0  0  0  0
  4  5  1  0  0  0  0
  4 20  1  0  0  0  0
  5  6  2  0  0  0  0
  5  7  1  0  0  0  0
  7  8  1  0  0  0  0
  7 21  1  0  0  0  0
  7 22  1  0  0  0  0
  8  9  1  0  0  0  0
  8 13  1  0  0  0  0
  9 10  1  0  0  0  0
  9 23  1  0  0  0  0
  9 24  1  0  0  0  0
 10 11  1  0  0  0  0
 10 12  1  0  0  0  0
 10 14  1  0  0  0  0
 12 13  1  0  0  0  0
 12 25  1  0  0  0  0
 12 26  1  0  0  0  0
 14 27  1  0  0  0  0
M  END
$$$$
