20
0 1 C9H10O
C                     1.947070700051    -1.063826526457    -0.186742753485
C                     2.997972919821    -1.669305920844     0.514337303647
C                     0.877541505967    -0.496200606727     0.512992505602
C                     2.977359334881    -1.705713381731     1.907544596774
C                     0.857187307821    -0.533019513479     1.909591628853
C                     1.907139437535    -1.138214501574     2.620442175874
C                     1.936028957166    -1.205661375639     4.119841396654
C                     0.935157775613    -0.734963961862     6.415097683567
C                     0.778614403526    -0.595907869839     4.901658528828
O                     2.873788125612    -1.741663580590     4.699962566188
H                     1.962160944937    -1.034831986316    -1.273333081225
H                     3.829773062087    -2.110858767449    -0.028368851591
H                     0.061203514330    -0.025918422432    -0.028846963200
H                     3.781635144759    -2.169852046156     2.469886216379
H                     0.019518674957    -0.087797108674     2.436923545672
H                     1.002261478256    -1.786149296731     6.707237662245
H                     1.847526375894    -0.242685034525     6.761656971274
H                     0.079956893205    -0.284681379356     6.928921473649
H                     0.690619853543     0.460552996688     4.616723752965
H                    -0.151832176173    -1.069932226031     4.563116815624
