24
1 1 C7H16N
C                     0.511364222033    -1.742780943562    -1.029042157910
C                     0.156675100170    -0.243404080519    -0.940810922836
C                     1.373751643176    -1.891144357828    -2.301738533115
C                     1.328652658274     0.443554358861    -1.629977068372
C                     4.450726804638    -0.727979208980    -5.439679523671
C                     3.102707408768    -1.027346277244    -4.770211819883
C                     2.952902817411    -0.238992155485    -3.472231712101
N                     1.613470607685    -0.466552744402    -2.810460959634
H                     1.088953363282    -2.050997251817    -0.155144317502
H                    -0.378668099234    -2.371738031041    -1.074035270327
H                    -0.776672593043    -0.023527589210    -1.469343315200
H                     0.040383089894     0.101164664776     0.088030983834
H                     2.352594405141    -2.327284970426    -2.101248052036
H                     0.897813147177    -2.458864910318    -3.100660863531
H                     1.136677940291     1.453042328732    -1.996658869859
H                     2.228719597650     0.447502724658    -1.010466513785
H                     4.543983122380     0.332514236605    -5.693216548717
H                     5.287337871555    -0.998395521226    -4.787843512407
H                     4.548789474939    -1.302623764808    -6.363438557578
H                     3.021696749108    -2.100986040524    -4.570654611608
H                     2.286045587137    -0.763004279073    -5.454668192992
H                     3.711350176894    -0.516263180604    -2.735548913866
H                     3.030313939599     0.836327629019    -3.654906066522
H                     0.895057986030    -0.272295309393    -3.514863889809
