
  -OEChem-12102412493D

 18 18  0     0  0  0  0  0  0999 V2000
    3.9649   -2.0306   -3.0041 C   0  0  0  0  0  0  0  0  0  0  0  0
    4.8915   -1.6450   -2.0622 C   0  0  0  0  0  0  0  0  0  0  0  0
    2.9219   -0.6602   -1.6970 C   0  0  0  0  0  0  0  0  0  0  0  0
    0.6989   -0.6453   -0.5460 C   0  0  0  0  0  0  0  0  0  0  0  0
    1.3966    1.2974   -2.0259 C   0  0  0  0  0  0  0  0  0  0  0  0
    1.8770    0.2077   -1.0503 C   0  0  0  0  0  0  0  0  0  0  0  0
    2.7505   -1.4158   -2.7690 N   0  0  0  0  0  0  0  0  0  0  0  0
    4.2098   -0.7678   -1.2323 N   0  0  0  0  0  0  0  0  0  0  0  0
    4.1024   -2.7122   -3.8337 H   0  0  0  0  0  0  0  0  0  0  0  0
    5.9302   -1.8998   -1.9077 H   0  0  0  0  0  0  0  0  0  0  0  0
    0.2303   -1.1689   -1.3841 H   0  0  0  0  0  0  0  0  0  0  0  0
   -0.0545   -0.0133   -0.0632 H   0  0  0  0  0  0  0  0  0  0  0  0
    1.0331   -1.3970    0.1766 H   0  0  0  0  0  0  0  0  0  0  0  0
    0.9471    0.8364   -2.9100 H   0  0  0  0  0  0  0  0  0  0  0  0
    2.2280    1.9265   -2.3598 H   0  0  0  0  0  0  0  0  0  0  0  0
    0.6484    1.9390   -1.5475 H   0  0  0  0  0  0  0  0  0  0  0  0
    2.3427    0.6995   -0.1852 H   0  0  0  0  0  0  0  0  0  0  0  0
    4.5920   -0.2913   -0.4264 H   0  0  0  0  0  0  0  0  0  0  0  0
  1  2  2  0  0  0  0
  1  7  1  0  0  0  0
  1  9  1  0  0  0  0
  2  8  1  0  0  0  0
  2 10  1  0  0  0  0
  3  6  1  0  0  0  0
  3  7  2  0  0  0  0
  3  8  1  0  0  0  0
  4  6  1  0  0  0  0
  4 11  1  0  0  0  0
  4 12  1  0  0  0  0
  4 13  1  0  0  0  0
  5  6  1  0  0  0  0
  5 14  1  0  0  0  0
  5 15  1  0  0  0  0
  5 16  1  0  0  0  0
  6 17  1  0  0  0  0
  8 18  1  0  0  0  0
M  END
$$$$
