23
0 1 C10H12O
C                     6.076809594416    -0.424491538320     3.895735773996
C                     6.517637579369    -1.073103092920     2.735068590295
C                     4.857384028480     0.259703659376     3.890056056784
C                     5.741842949529    -1.035820208881     1.577975538269
C                     4.080332343467     0.296468410132     2.729539090618
C                     4.513820370628    -0.351287247955     1.560094687946
C                     3.728814961635    -0.349636199182     0.278317245507
C                     1.328145854676    -0.700126612093     0.876855782262
C                     1.931408520436     0.662510446955    -1.179311234563
C                     2.338003206115     0.285774013877     0.248480408708
O                     4.188349085814    -0.889240047731    -0.722921756542
H                     6.680910318124    -0.452057231200     4.799084977355
H                     7.465306125554    -1.605395612163     2.736452923170
H                     4.512544751920     0.765041918257     4.788325169505
H                     6.066451670198    -1.531160876182     0.668276208381
H                     3.138583797990     0.834917731593     2.746718606508
H                     1.280098294357    -1.619998421336     0.284849059739
H                     0.328427411591    -0.253914455400     0.892842183463
H                     1.597056731842    -0.971698753202     1.901773294863
H                     1.902659216890    -0.221464224028    -1.821140181975
H                     2.641127205029     1.368509910066    -1.620814708935
H                     0.939275425199     1.126274766130    -1.177157811406
H                     2.353804352957     1.195404735939     0.859241653129
