
  -OEChem-12102412493D

 17 16  0     0  0  0  0  0  0999 V2000
   -0.2517   -0.8775   -0.6724 C   0  0  0  0  0  0  0  0  0  0  0  0
    2.6880   -1.6680   -1.3751 C   0  0  0  0  0  0  0  0  0  0  0  0
    2.5274   -0.0680   -3.3202 C   0  0  0  0  0  0  0  0  0  0  0  0
    0.4379   -0.6459   -2.0225 C   0  0  0  0  0  0  0  0  0  0  0  0
    1.9616   -0.4390   -1.9417 C   0  0  0  0  0  0  0  0  0  0  0  0
   -0.0345   -0.0603    0.0259 H   0  0  0  0  0  0  0  0  0  0  0  0
    0.0720   -1.8113   -0.2020 H   0  0  0  0  0  0  0  0  0  0  0  0
   -1.3392   -0.9313   -0.7923 H   0  0  0  0  0  0  0  0  0  0  0  0
    2.4972   -2.5518   -1.9971 H   0  0  0  0  0  0  0  0  0  0  0  0
    2.3677   -1.9014   -0.3550 H   0  0  0  0  0  0  0  0  0  0  0  0
    3.7715   -1.5064   -1.3516 H   0  0  0  0  0  0  0  0  0  0  0  0
    2.3699   -0.8828   -4.0380 H   0  0  0  0  0  0  0  0  0  0  0  0
    3.6048    0.1261   -3.2700 H   0  0  0  0  0  0  0  0  0  0  0  0
    2.0426    0.8286   -3.7230 H   0  0  0  0  0  0  0  0  0  0  0  0
    0.2301   -1.4934   -2.6910 H   0  0  0  0  0  0  0  0  0  0  0  0
   -0.0073    0.2355   -2.5020 H   0  0  0  0  0  0  0  0  0  0  0  0
    2.1466    0.4061   -1.2623 H   0  0  0  0  0  0  0  0  0  0  0  0
  1  4  1  0  0  0  0
  1  6  1  0  0  0  0
  1  7  1  0  0  0  0
  1  8  1  0  0  0  0
  2  5  1  0  0  0  0
  2  9  1  0  0  0  0
  2 10  1  0  0  0  0
  2 11  1  0  0  0  0
  3  5  1  0  0  0  0
  3 12  1  0  0  0  0
  3 13  1  0  0  0  0
  3 14  1  0  0  0  0
  4  5  1  0  0  0  0
  4 15  1  0  0  0  0
  4 16  1  0  0  0  0
  5 17  1  0  0  0  0
M  END
$$$$
