18
0 1 C6H10N2
C                     4.955982543624     2.435762086363    -0.839181206544
C                     3.846016246528     2.683069706078    -0.065182778785
C                     4.047853065558     0.509746368547    -0.481104424473
C                     4.737904667445    -1.784242533655    -1.271914902175
C                     2.052193261106     1.183328118226     0.915139562661
C                     3.734785567559    -0.957849402416    -0.461948802125
N                     5.073029451650     1.084056420876    -1.091790954364
N                     3.268560875986     1.443549085368     0.163579005357
H                     5.673759745160     3.148337931010    -1.224903640171
H                     3.421731277824     3.593161902419     0.335599826587
H                     4.750226479419    -1.465416269952    -2.317163763050
H                     4.473732413448    -2.845730853563    -1.230523179350
H                     5.750649945302    -1.658116320555    -0.881329769199
H                     1.252563209088     0.822598179206     0.259533655905
H                     2.230800243066     0.436604341171     1.694542048639
H                     1.720713343693     2.106968986861     1.392041796196
H                     3.715215414244    -1.313991210974     0.577796864472
H                     2.719633724043    -1.120296185505    -0.850407055472
