15
0 1 C5H10
C                     1.651303793688    -0.734203248454     1.177195081357
C                     0.859866103405     0.277690636188     0.798899861552
C                     1.330622250561    -2.195271856653     1.013868144272
C                     0.148963183716     2.458837176141     1.871631445611
C                     1.172427639197     1.740228097446     0.975141273212
H                     2.611182484872    -0.499311856511     1.642148223594
H                    -0.103972637809     0.046232567155     0.338369000347
H                     1.321476126280    -2.709104510454     1.983522601240
H                     2.084446056460    -2.699579998008     0.396081802499
H                     0.353361352740    -2.340799336162     0.543122718246
H                     0.139960662255     2.024965326165     2.877010767199
H                    -0.863973910296     2.371082465145     1.462310470693
H                     0.382231864326     3.525643356593     1.960490168438
H                     1.186709142552     2.230300154727    -0.008293810298
H                     2.178444058396     1.852978912038     1.395534805003
