
  -OEChem-12102412493D

 15 14  0     0  0  0  0  0  0999 V2000
    1.5464   -0.7567    1.2672 C   0  0  0  0  0  0  0  0  0  0  0  0
    0.8793    0.1199    0.5008 C   0  0  0  0  0  0  0  0  0  0  0  0
    1.2917   -2.2335    1.4147 C   0  0  0  0  0  0  0  0  0  0  0  0
    0.0607    0.1501   -1.8904 C   0  0  0  0  0  0  0  0  0  0  0  0
   -0.2824   -0.1496   -0.4200 C   0  0  0  0  0  0  0  0  0  0  0  0
    2.3749   -0.3702    1.8623 H   0  0  0  0  0  0  0  0  0  0  0  0
    1.2177    1.1576    0.5182 H   0  0  0  0  0  0  0  0  0  0  0  0
    1.0425   -2.4824    2.4540 H   0  0  0  0  0  0  0  0  0  0  0  0
    2.1918   -2.8073    1.1612 H   0  0  0  0  0  0  0  0  0  0  0  0
    0.4773   -2.5908    0.7805 H   0  0  0  0  0  0  0  0  0  0  0  0
    0.8739   -0.4949   -2.2392 H   0  0  0  0  0  0  0  0  0  0  0  0
    0.3844    1.1896   -2.0157 H   0  0  0  0  0  0  0  0  0  0  0  0
   -0.8074   -0.0113   -2.5389 H   0  0  0  0  0  0  0  0  0  0  0  0
   -1.1283    0.4831   -0.1180 H   0  0  0  0  0  0  0  0  0  0  0  0
   -0.6247   -1.1844   -0.3278 H   0  0  0  0  0  0  0  0  0  0  0  0
  1  2  2  0  0  0  0
  1  3  1  0  0  0  0
  1  6  1  0  0  0  0
  2  5  1  0  0  0  0
  2  7  1  0  0  0  0
  3  8  1  0  0  0  0
  3  9  1  0  0  0  0
  3 10  1  0  0  0  0
  4  5  1  0  0  0  0
  4 11  1  0  0  0  0
  4 12  1  0  0  0  0
  4 13  1  0  0  0  0
  5 14  1  0  0  0  0
  5 15  1  0  0  0  0
M  END
$$$$
