17
0 1 C6H9NS
C                     3.856342981041    -2.077850370539    -3.120534002551
C                     4.956012156381    -1.870787106329    -2.332587802337
C                     2.920734642785    -0.656915985484    -1.695258977924
C                     0.698291811826    -0.649652239794    -0.547966462468
C                     1.396225084924     1.297337385017    -2.030590569874
C                     1.871687607189     0.212678786934    -1.047153999377
N                     2.717943992416    -1.392364409082    -2.755393927117
S                     4.556019268620    -0.759964923304    -1.062842786022
H                     3.829492053113    -2.729210185815    -3.987798003361
H                     5.946081259409    -2.296869017963    -2.426845804912
H                     0.229886164004    -1.172666261077    -1.386409339801
H                    -0.055735970721    -0.020174944658    -0.063474033821
H                     1.037165546687    -1.399052023668     0.174344946372
H                     0.946351895075     0.835842489936    -2.914100924898
H                     2.230056431579     1.924605931518    -2.361375037305
H                     0.649107197850     1.940551617823    -1.553494715690
H                     2.330910056574     0.706523004584    -0.182519030326
