14
0 1 C4H10
C                     0.389334946524    -0.743921111669     0.686889672801
C                     2.558395571119     1.642787797754     2.932817240200
C                     1.622119696978    -0.186062691976     1.407070063846
C                     1.325416258080     1.084405704294     2.213373326247
H                    -0.023406746303    -0.010028680741    -0.015253083297
H                     0.631332892067    -1.649008244115     0.119145434339
H                    -0.402727109367    -0.999550111814     1.400506811197
H                     2.970715753131     0.909814150759     3.636164123166
H                     2.316767049479     2.548878911664     3.499118931003
H                     3.350644876366     1.896922957093     2.218875123497
H                     2.032576730699    -0.951649974974     2.079087570982
H                     2.410333380397     0.028852678314     0.673084915779
H                     0.914255249332     1.849753153597     1.541517069990
H                     0.537734953394     0.869266428542     2.947866595563
