
  -OEChem-12102412493D

 22 22  0     0  0  0  0  0  0999 V2000
   22.0724   -6.1981   -4.5861 C   0  0  0  0  0  0  0  0  0  0  0  0
   21.0763   -5.7129   -5.4495 C   0  0  0  0  0  0  0  0  0  0  0  0
   23.0903   -5.3513   -4.1757 C   0  0  0  0  0  0  0  0  0  0  0  0
   21.1724   -4.3844   -5.8561 C   0  0  0  0  0  0  0  0  0  0  0  0
   23.0938   -4.0134   -4.6449 C   0  0  0  0  0  0  0  0  0  0  0  0
   24.9689   -2.0283   -6.2584 C   0  0  0  0  0  0  0  0  0  0  0  0
   25.1456   -0.9629   -3.9563 C   0  0  0  0  0  0  0  0  0  0  0  0
   24.3097   -1.8481   -4.8832 C   0  0  0  0  0  0  0  0  0  0  0  0
   22.1496   -3.5456   -5.4792 N   0  0  0  0  0  0  0  0  0  0  0  0
   24.0664   -3.1309   -4.2139 N   0  0  0  0  0  0  0  0  0  0  0  0
   22.0504   -7.2283   -4.2389 H   0  0  0  0  0  0  0  0  0  0  0  0
   20.2617   -6.3420   -5.7941 H   0  0  0  0  0  0  0  0  0  0  0  0
   23.8719   -5.6967   -3.5031 H   0  0  0  0  0  0  0  0  0  0  0  0
   20.4274   -3.9613   -6.5295 H   0  0  0  0  0  0  0  0  0  0  0  0
   25.9603   -2.4871   -6.1575 H   0  0  0  0  0  0  0  0  0  0  0  0
   24.3513   -2.6662   -6.8956 H   0  0  0  0  0  0  0  0  0  0  0  0
   25.0929   -1.0613   -6.7588 H   0  0  0  0  0  0  0  0  0  0  0  0
   26.1298   -1.4104   -3.7647 H   0  0  0  0  0  0  0  0  0  0  0  0
   24.6424   -0.8178   -2.9956 H   0  0  0  0  0  0  0  0  0  0  0  0
   25.3147    0.0175   -4.4120 H   0  0  0  0  0  0  0  0  0  0  0  0
   23.3284   -1.3912   -5.0291 H   0  0  0  0  0  0  0  0  0  0  0  0
   24.8874   -3.5675   -3.8115 H   0  0  0  0  0  0  0  0  0  0  0  0
  1  2  1  0  0  0  0
  1  3  2  0  0  0  0
  1 11  1  0  0  0  0
  2  4  2  0  0  0  0
  2 12  1  0  0  0  0
  3  5  1  0  0  0  0
  3 13  1  0  0  0  0
  4  9  1  0  0  0  0
  4 14  1  0  0  0  0
  5  9  2  0  0  0  0
  5 10  1  0  0  0  0
  6  8  1  0  0  0  0
  6 15  1  0  0  0  0
  6 16  1  0  0  0  0
  6 17  1  0  0  0  0
  7  8  1  0  0  0  0
  7 18  1  0  0  0  0
  7 19  1  0  0  0  0
  7 20  1  0  0  0  0
  8 10  1  0  0  0  0
  8 21  1  0  0  0  0
 10 22  1  0  0  0  0
M  END
$$$$
