
  -OEChem-12102412493D

 18 17  0     0  0  0  0  0  0999 V2000
   -1.1196    0.2574    1.7718 C   0  0  0  0  0  0  0  0  0  0  0  0
   -0.8558    0.5878    3.0478 C   0  0  0  0  0  0  0  0  0  0  0  0
   -0.2343   -0.4999    0.8175 C   0  0  0  0  0  0  0  0  0  0  0  0
   -1.8704    1.3323    3.8847 C   0  0  0  0  0  0  0  0  0  0  0  0
    0.3193   -1.1051    4.5356 C   0  0  0  0  0  0  0  0  0  0  0  0
    0.4297    0.2239    3.7648 C   0  0  0  0  0  0  0  0  0  0  0  0
   -2.0873    0.5539    1.3639 H   0  0  0  0  0  0  0  0  0  0  0  0
   -0.0343    0.0913   -0.0853 H   0  0  0  0  0  0  0  0  0  0  0  0
   -0.7257   -1.4234    0.4851 H   0  0  0  0  0  0  0  0  0  0  0  0
    0.7265   -0.7782    1.2564 H   0  0  0  0  0  0  0  0  0  0  0  0
   -2.1107    0.7790    4.8018 H   0  0  0  0  0  0  0  0  0  0  0  0
   -1.4765    2.3069    4.2015 H   0  0  0  0  0  0  0  0  0  0  0  0
   -2.8034    1.5025    3.3398 H   0  0  0  0  0  0  0  0  0  0  0  0
    0.1253   -1.9348    3.8483 H   0  0  0  0  0  0  0  0  0  0  0  0
   -0.5003   -1.0777    5.2616 H   0  0  0  0  0  0  0  0  0  0  0  0
    1.2439   -1.3218    5.0823 H   0  0  0  0  0  0  0  0  0  0  0  0
    0.6835    1.0251    4.4703 H   0  0  0  0  0  0  0  0  0  0  0  0
    1.2645    0.1621    3.0604 H   0  0  0  0  0  0  0  0  0  0  0  0
  1  2  2  0  0  0  0
  1  3  1  0  0  0  0
  1  7  1  0  0  0  0
  2  4  1  0  0  0  0
  2  6  1  0  0  0  0
  3  8  1  0  0  0  0
  3  9  1  0  0  0  0
  3 10  1  0  0  0  0
  4 11  1  0  0  0  0
  4 12  1  0  0  0  0
  4 13  1  0  0  0  0
  5  6  1  0  0  0  0
  5 14  1  0  0  0  0
  5 15  1  0  0  0  0
  5 16  1  0  0  0  0
  6 17  1  0  0  0  0
  6 18  1  0  0  0  0
M  END
$$$$
