14   
torsion grid (-165,)
C        0.2818665377   -0.4526767815    0.9134447566
C        1.3790391719   -0.4988217487    3.0682206932
C       -0.5098396998   -1.5172220951    1.3536111486
C        1.2396167939    0.0525241191    1.7935679440
C        0.5160196535   -1.5484889540    3.3856401129
N       -0.3969966548   -2.0646892421    2.5699247879
O       -0.8503944032   -2.3986717974    5.5346981892
O        1.4508043014   -1.1660399416    5.7285097819
S        0.5389877013   -2.4291432500    5.0124851250
Cl       2.2642378354    1.3795670315    1.3037809701
H        0.1564719385   -0.0380601660   -0.0811092666
H        2.0994517927   -0.1210763756    3.7825112469
H       -1.2638340122   -1.9463148665    0.6970009902
H        1.7349470843   -1.4842968002    6.6056230886
14   
torsion grid (-150,)
C        0.2540735685   -0.4317492198    0.9431444148
C        1.4345743411   -0.5396583646    3.0494207097
C       -0.5678161327   -1.4593044590    1.4132771174
C        1.2706036281    0.0244862308    1.7842592459
C        0.5370824675   -1.5510401861    3.3992992404
N       -0.4297610587   -2.0200095984    2.6219875756
O       -0.7293938640   -2.7261418958    5.4580935542
O        1.2431863271   -1.0263583991    5.7822595283
S        0.6583677147   -2.4460903672    5.0164238651
Cl       2.3330638194    1.3069080105    1.2578358890
H        0.1069634628   -0.0066996375   -0.0440370691
H        2.1947289059   -0.1911910754    3.7375989240
H       -1.3688751805   -1.8482185670    0.7880502791
H        1.5597671809   -1.2920713103    6.6660542794
14   
torsion grid (-135,)
C        0.2418226398   -0.4077279453    0.9613361779
C        1.5131401756   -0.5754374858    3.0081753255
C       -0.6011586363   -1.4000265359    1.4671716943
C        1.3161429731    0.0017957258    1.7546563371
C        0.5900147304   -1.5497626888    3.3957765977
N       -0.4305419708   -1.9730933501    2.6670410565
O       -0.5279901235   -2.9935828776    5.3732270183
O        1.0416474347   -0.9327450296    5.8084934092
S        0.7960840623   -2.4337712646    5.0126989443
Cl       2.4057971580    1.2407767610    1.1824164999
H        0.0671354851    0.0273430892   -0.0169916262
H        2.3194917998   -0.2613888296    3.6609533042
H       -1.4477104668   -1.7498258700    0.8798817767
H        1.3471193348   -1.1378995834    6.7125599232
14   
torsion grid (-120,)
C        0.2162359268   -0.3893718356    0.9866468721
C        1.5672755599   -0.6106624473    2.9748880204
C       -0.6458043597   -1.3437872541    1.5317669647
C        1.3414673253   -0.0250411736    1.7305236179
C        0.6201637871   -1.5428378229    3.4043739176
N       -0.4482923578   -1.9227497110    2.7251488260
O       -0.3241398010   -3.2074444868    5.3045959620
O        0.7909028459   -0.8924304311    5.8392622646
S        0.8875913965   -2.4011165379    5.0271048308
Cl       2.4582528386    1.1634775915    1.1066015190
H        0.0180791119    0.0508833681    0.0151090360
H        2.4197549319   -0.3371979842    3.5877495906
H       -1.5314511253   -1.6569972597    0.9826894521
H        1.0599300364   -1.0492840387    6.7646872599
14   
torsion grid (-105,)
C        0.2026916573   -0.3797568392    0.9912362991
C        1.6216274200   -0.6407078064    2.9250813639
C       -0.6791365761   -1.2872774622    1.5844836831
C        1.3728188261   -0.0583914243    1.6829435803
C        0.6516928744   -1.5219329788    3.4055452937
N       -0.4608001914   -1.8598982594    2.7767209024
O       -0.0934416991   -3.3658515841    5.2337439172
O        0.5359509332   -0.8990486599    5.8479452689
S        0.9641847336   -2.3467015046    5.0357607730
Cl       2.5184908638    1.0662436179    0.9966884277
H       -0.0145983112    0.0558215599    0.0216864230
H        2.5160765140   -0.4080660313    3.4945513871
H       -1.5995025208   -1.5658214867    1.0751815163
H        0.7466586833   -1.0274900446    6.7928797579
14   
torsion grid (-90,)
C        0.1918713803   -0.3719387962    1.0044780062
C        1.6781853988   -0.6582823425    2.8821098301
C       -0.7022276153   -1.2295669831    1.6540619190
C        1.4024034094   -0.0884128276    1.6384915040
C        0.6946082731   -1.4874664288    3.4208717474
N       -0.4593266710   -1.7876741375    2.8469036385
O        0.1886153477   -3.4809405947    5.1752833559
O        0.3094403588   -0.9621938102    5.8565349581
S        1.0503199771   -2.2797578357    5.0546732384
Cl       2.5668328795    0.9691918242    0.8813965994
H       -0.0483265479    0.0529443122    0.0355905859
H        2.6089948304   -0.4600644764    3.4048979088
H       -1.6545670080   -1.4765336700    1.1890510433
H        0.4420675404   -1.0969662180    6.8147977859
14   
torsion grid (-75,)
C        0.1929946913   -0.3752833550    1.0060396981
C        1.7273922488   -0.6671011813    2.8438313679
C       -0.7187680650   -1.1647479131    1.7172954841
C        1.4361420973   -0.1295067559    1.5881487592
C        0.7267280015   -1.4297580558    3.4436167364
N       -0.4622071202   -1.6914281802    2.9200496348
O        0.4760254718   -3.5233718650    5.1309940968
O        0.0905758553   -1.0498633713    5.8568027164
S        1.1098719612   -2.1812145614    5.0861129741
Cl       2.6240666705    0.8408486073    0.7550745272
H       -0.0607538672    0.0264106208    0.0307336599
H        2.6851125959   -0.4978425327    3.3268047671
H       -1.6979044520   -1.3792843344    1.2935407984
H        0.1592796099   -1.2088257871    6.8180117172
14   
torsion grid (-60,)
C        0.1917051287   -0.3948805281    1.0007228589
C        1.7560713147   -0.6736856804    2.8148474907
C       -0.7408681193   -1.0981550199    1.7739364960
C        1.4601493910   -0.1857681626    1.5394949523
C        0.7359403629   -1.3558631416    3.4753591192
N       -0.4807126378   -1.5763295121    2.9952771284
O        0.7620135433   -3.4913027893    5.1213901760
O       -0.1116907880   -1.1531277425    5.8541493002
S        1.1402258782   -2.0529592725    5.1345253916
Cl       2.6735020880    0.6798142722    0.6312432974
H       -0.0674169068   -0.0286320538    0.0129653973
H        2.7331897796   -0.5286447898    3.2658809864
H       -1.7410133707   -1.2804833666    1.3855717217
H       -0.0765132249   -1.3315366112    6.8136113071
14   
torsion grid (-45,)
C        0.1864936699   -0.4141611633    0.9891236966
C        1.7652184232   -0.6762716054    2.7928462602
C       -0.7666739646   -1.0253441304    1.8132105681
C        1.4729848330   -0.2424955151    1.4976741937
C        0.7249807483   -1.2730565973    3.5040450855
N       -0.5104211808   -1.4510375045    3.0549692862
O        1.0667949835   -3.4002051706    5.1153944659
O       -0.2758879941   -1.2989548263    5.8471125874
S        1.1559792033   -1.9149859669    5.1798544733
Cl       2.7119134160    0.5129790383    0.5279487736
H       -0.0711895170   -0.0863363574   -0.0124045965
H        2.7560776253   -0.5561864528    3.2208801216
H       -1.7819722901   -1.1745550803    1.4508553617
H       -0.2385686022   -1.4767897917    6.8064005585
14   
torsion grid (-30,)
C        0.2549772180   -0.3690335975    0.9800290772
C        1.5937210217   -0.3493385742    2.9851764213
C       -0.2246341544   -1.6201468245    1.3835519264
C        1.1815112100    0.2694515959    1.8039738487
C        1.0426310217   -1.6003775312    3.2654757531
N        0.1565943743   -2.2339884045    2.5102249147
O        2.7724339267   -3.3484312608    4.3422069913
O        0.2652997508   -3.2855114766    5.0317865674
S        1.6965639932   -2.4183466749    4.7897271473
Cl       1.8189993487    1.8342521675    1.3669946329
H       -0.0861504098    0.0875440879    0.0569482999
H        2.3141389818    0.1206674751    3.6482764143
H       -0.9511258148   -2.1477682438    0.7685560945
H        0.3619434060   -3.7472589958    5.8865047242
14   
torsion grid (-15,)
C        0.2518044513   -0.3621392916    0.9859838025
C        1.5902967583   -0.3495538382    2.9915228860
C       -0.2914388560   -1.5722777874    1.4272013520
C        1.2101228692    0.2529799180    1.7927970492
C        0.9730298248   -1.5608239795    3.3122247920
N        0.0566554638   -2.1694727329    2.5749867013
O        2.8631132043   -3.0346836747    4.4977966221
O        0.3230904955   -3.4533956879    4.9246759246
S        1.5943729786   -2.3447217786    4.8716772182
Cl       1.9284390751    1.7677215002    1.3074260009
H       -0.0643650836    0.0827791223    0.0484488248
H        2.3410143049    0.0987450602    3.6355252968
H       -1.0427890552   -2.0822168402    0.8273982720
H        0.3873514635   -3.9035659792    5.7884994749
14   
torsion grid (0,)
C        0.2472515270   -0.3620591106    0.9941185739
C        1.6008199234   -0.3736431755    2.9907415188
C       -0.3538247322   -1.5317982973    1.4652189880
C        1.2417538179    0.2205345868    1.7822840443
C        0.9188801633   -1.5409586247    3.3458250683
N       -0.0299789368   -2.1190246871    2.6262734771
O        2.9022562892   -2.7342175317    4.6635765920
O        0.4357139742   -3.6082186044    4.7997051011
S        1.4983091376   -2.3054595389    4.9325899920
Cl       2.0363257669    1.6823757573    1.2552441801
H       -0.0506502814    0.0770073812    0.0478843991
H        2.3891509998    0.0396940959    3.6120464395
H       -1.1315074032   -2.0185922395    0.8800021328
H        0.4528802660   -4.0651782234    5.6620352180
14   
torsion grid (15,)
C        0.2462348929   -0.3644148753    0.9936469553
C        1.6191227608   -0.4044349073    2.9779038913
C       -0.4100922668   -1.4914688183    1.4938394105
C        1.2771245624    0.1821872945    1.7607869504
C        0.8756741564   -1.5227895950    3.3656969902
N       -0.1063631747   -2.0692072830    2.6651807023
O        2.8812364125   -2.4393214286    4.8411915890
O        0.5920480198   -3.7235424638    4.6661617232
S        1.4032421764   -2.2770757063    4.9738428323
Cl       2.1434670862    1.5867790369    1.1924206374
H       -0.0361411736    0.0685749264    0.0398873197
H        2.4420447174   -0.0315234780    3.5785671436
H       -1.2145296401   -1.9519618171    0.9237707450
H        0.5296962226   -4.1925745201    5.5194991190
14   
torsion grid (30,)
C        0.2372767642   -0.3769698269    1.0061085600
C        1.6267206554   -0.4461881852    2.9793754485
C       -0.4748071894   -1.4560334189    1.5366714902
C        1.3033726146    0.1301227552    1.7514996839
C        0.8263145276   -1.5118537352    3.3965168478
N       -0.1907976798   -2.0234812972    2.7173370962
O        2.7788130891   -2.1785701041    5.0552739498
O        0.7586505745   -3.7959600741    4.5663261187
S        1.2884869285   -2.2592937698    5.0231751185
Cl       2.2385826522    1.4718868802    1.1418132035
H       -0.0304077979    0.0491204195    0.0450312820
H        2.4746363714   -0.1129552146    3.5679807313
H       -1.3076677185   -1.8848773923    0.9830541822
H        0.6114950706   -4.2975228337    5.3898612171
14   
torsion grid (45,)
C        0.2302068402   -0.3607112486    1.0139815527
C        1.6319047717   -0.4778772428    2.9768712073
C       -0.5359979453   -1.3935869572    1.5637845514
C        1.3282758212    0.0984833874    1.7428939607
C        0.7822281815   -1.4958976241    3.4072988335
N       -0.2705532740   -1.9621839809    2.7469345861
O        2.6268923604   -1.9633305809    5.2453981404
O        0.9584471879   -3.8306554879    4.4469283990
S        1.1789466479   -2.2603426520    5.0378045083
Cl       2.3264665036    1.3820650442    1.1081036679
H       -0.0236968201    0.0674639665    0.0501175375
H        2.4931183459   -0.1820109832    3.5664813182
H       -1.3976702632   -1.7800781162    1.0233162969
H        0.7299781656   -4.3910801475    5.2116613099
14   
torsion grid (60,)
C        0.2355965789   -0.3901702476    1.0007821850
C        1.6493700010   -0.5458112668    2.9527773614
C       -0.5890442829   -1.3578923404    1.5842246826
C        1.3693725277    0.0163205607    1.7065126094
C        0.7467354722   -1.5018220223    3.4109415571
N       -0.3455928251   -1.9142247667    2.7779095243
O        2.4404341454   -1.7815858373    5.4304379806
O        1.1630026443   -3.8194209817    4.3951524572
S        1.0771075784   -2.2581948804    5.0546621892
Cl       2.4362248794    1.2208174560    1.0301267811
H       -0.0036040408    0.0317221100    0.0303877473
H        2.5231478720   -0.2835207880    3.5404911499
H       -1.4825154627   -1.6973984316    1.0643587839
H        0.9363654378   -4.4448598030    5.1085421396
14   
torsion grid (75,)
C        0.2295988050   -0.4181337442    0.9896721412
C        1.6513422444   -0.6328710676    2.9302198704
C       -0.6509249007   -1.3201131040    1.5955674215
C        1.3954220803   -0.0744797609    1.6775410250
C        0.6971047883   -1.5267715318    3.4066701127
N       -0.4300533603   -1.8738259126    2.7954472615
O        2.2103630815   -1.6393278368    5.5838508673
O        1.3670251929   -3.7825349064    4.3631579161
S        0.9698280540   -2.2804063583    5.0585078364
Cl       2.5272201182    1.0517087816    0.9726372547
H        0.0068733346    0.0055746438    0.0161509594
H        2.5349655739   -0.4041465533    3.5176958943
H       -1.5726358075   -1.6040367599    1.0920446583
H        1.2010350709   -4.4671096462    5.0383661928
14   
torsion grid (90,)
C        0.2289637871   -0.3996142352    0.9996080095
C        1.6444981416   -0.7279165706    2.9295911285
C       -0.7080573278   -1.2420824105    1.6037714939
C        1.4205689888   -0.1437292984    1.6836704899
C        0.6351655218   -1.5628093095    3.4022262783
N       -0.5186237028   -1.8215957832    2.7983182013
O        1.9278386442   -1.5636826530    5.7260588447
O        1.5478017962   -3.7282927659    4.3417228100
S        0.8492736482   -2.3410517018    5.0497970926
Cl       2.6211206140    0.9102462931    0.9810606393
H        0.0303923300    0.0484083481    0.0317281056
H        2.5385537605   -0.5509069100    3.5189992049
H       -1.6522615575   -1.4537633227    1.1066320578
H        1.4968299497   -4.4488906199    4.9982605188
14   
torsion grid (105,)
C        0.1875594592   -0.4014458181    0.9991668610
C        1.6224364314   -0.8376315961    2.8925404633
C       -0.7857908194   -1.1913409889    1.6140251438
C        1.4084353840   -0.2273770122    1.6587633621
C        0.5739360407   -1.6162270554    3.3804377030
N       -0.6057403372   -1.7958790831    2.7990992933
O        1.6369443433   -1.5016607925    5.8197921681
O        1.7398001526   -3.6358160267    4.3533402501
S        0.7581187408   -2.4070336388    5.0246180736
Cl       2.6556574916    0.7583898435    0.9384766009
H       -0.0034798535    0.0697049791    0.0408167136
H        2.5389296404   -0.7165602001    3.4605992767
H       -1.7520935795   -1.3390384178    1.1367817865
H        1.8156350094   -4.3467824215    5.0182877383
14   
torsion grid (120,)
C        0.1918346502   -0.3555061187    1.0145209166
C        1.6343675042   -0.9424200453    2.8605934106
C       -0.8152156442   -1.1060066709    1.6227807882
C        1.4342448436   -0.2787395608    1.6531005204
C        0.5486798677   -1.6705119270    3.3484333669
N       -0.6494758441   -1.7598960752    2.7842992069
O        1.3252940134   -1.5178477572    5.8969729766
O        1.9216225900   -3.5264743145    4.3741313952
S        0.6880435440   -2.5028328382    4.9765762760
Cl       2.7257891886    0.6518916598    0.9372586466
H        0.0124081631    0.1577462078    0.0757466059
H        2.5725392197   -0.9017617938    3.4033506582
H       -1.7970762830   -1.1815645669    1.1607702574
H        2.1099931456   -4.1921542899    5.0632469464
14   
torsion grid (135,)
C        0.1675580900   -0.3126035844    1.0305563143
C        1.6369251817   -1.0414880677    2.8043988179
C       -0.8549020987   -1.0385657024    1.6427438556
C        1.4313445609   -0.3220735651    1.6300304578
C        0.5318013160   -1.7315749237    3.3044299693
N       -0.6850313086   -1.7438678320    2.7727886077
O        0.9914436677   -1.5842499138    5.9330505219
O        2.0831137638   -3.3903430802    4.4247454174
S        0.6369368261   -2.6105846481    4.9118433031
Cl       2.7457765030    0.5696801065    0.9059843634
H       -0.0152659423    0.2441182000    0.1175700897
H        2.5971371756   -1.0770337582    3.3064820709
H       -1.8523139011   -1.0528401995    1.2089654105
H        2.3361653377   -4.0028829106    5.1415279513
14   
torsion grid (150,)
C        0.3809143773   -0.5249710564    0.8679879897
C        1.1545512768   -0.3873822193    3.1530403334
C       -0.3381791846   -1.6654254810    1.2303357400
C        1.1373659611    0.1154590484    1.8536598898
C        0.3967487194   -1.5363941061    3.3796204311
N       -0.3371874748   -2.1728381147    2.4724483983
O       -0.7553034598   -1.3502864763    5.7878186143
O        1.7858896091   -1.8015914770    5.4939434793
S        0.1877083432   -2.2468785422    5.0621769554
Cl       2.0583394754    1.5443944083    1.4559381458
H        0.3518883352   -0.1490144769   -0.1491970431
H        1.7290076628    0.0729802209    3.9481345539
H       -0.9390795877   -2.1919385651    0.4920530006
H        1.9283855647   -2.1033702441    6.4109868791
14   
torsion grid (165,)
C        0.3515035546   -0.4967420240    0.8743055189
C        1.2458137766   -0.4356669569    3.1203233491
C       -0.3914856605   -1.6171260587    1.2537796822
C        1.1806278968    0.0927708294    1.8313870115
C        0.4529024121   -1.5560221302    3.3663262243
N       -0.3473170008   -2.1469234971    2.4839681099
O       -0.8727367837   -1.6691505022    5.6899297205
O        1.7255054780   -1.5883839149    5.5794346930
S        0.2836211147   -2.3332976893    5.0282957018
Cl       2.1356373167    1.4940744657    1.4145666746
H        0.2857812531   -0.0999090755   -0.1331801983
H        1.8744187816   -0.0095213850    3.8924973276
H       -1.0479213438   -2.1072428158    0.5380353622
H        1.8596957804   -1.8773742839    6.5015217655
14   
torsion grid (180,)
C        0.3183809453   -0.4735488272    0.8839225580
C        1.3165806344   -0.4707435741    3.0877550794
C       -0.4487840746   -1.5691634737    1.2893079734
C        1.2126005404    0.0721272137    1.8062669746
C        0.4868769278   -1.5568227965    3.3648601653
N       -0.3699929640   -2.1097156821    2.5116293299
O       -0.9186860611   -2.0322024869    5.5981455419
O        1.6037262017   -1.3681096569    5.6569433479
S        0.3961775785   -2.3966618660    5.0077312668
Cl       2.2031282130    1.4392533312    1.3587924285
H        0.2220755402   -0.0649306312   -0.1163489815
H        1.9933089515   -0.0705043648    3.8320372067
H       -1.1543051036   -2.0285330874    0.6002609348
H        1.7928599260   -1.6867895821    6.5592429921
