21   
torsion grid (-165,)
C        0.3645097552   -0.5538829686    1.6961039322
C       -0.1001400573   -1.3736461650    0.4848059455
C        0.5316282775   -2.7749381935    0.4997138956
C        0.2367040133   -0.6420079033   -0.8370758641
C       -0.4884856479    0.6677825941   -0.9981617378
C        0.0257328854    1.9065800339   -0.9591683532
C        1.4639972718    2.2960836269   -0.7454745793
H       -0.1092363543    0.4319104612    1.7189947123
H        0.1293863677   -1.0677371588    2.6352568534
H        1.4507648807   -0.4035998335    1.6621050408
H       -1.1923662827   -1.4831719258    0.5350685342
H        0.4300159298   -3.2745077997   -0.4703169505
H        0.0876639223   -3.4119331507    1.2719567218
H        1.6071099771   -2.7066207992    0.7069427854
H        1.3221194403   -0.5047907194   -0.8978424653
H       -0.0395188775   -1.2974021839   -1.6740365250
H       -1.5665604278    0.5795891394   -1.1441931067
H       -0.6653631568    2.7405094829   -1.0885421590
H        1.8351274749    2.8949325457   -1.5865762207
H        2.1234008730    1.4336195062   -0.6278921163
H        1.5643199260    2.9182913242    0.1529167198
21   
torsion grid (-150,)
C        0.3753276503   -0.5574334166    1.6899005888
C       -0.0914671067   -1.3674557016    0.4724634830
C        0.5422686372   -2.7740491681    0.4729400222
C        0.2458753890   -0.6198886775   -0.8411251468
C       -0.4625233417    0.7015330483   -0.9785975663
C        0.0696771081    1.9326334494   -0.9373735947
C        1.5162834568    2.3004677541   -0.7425629586
H       -0.1094410693    0.4223869535    1.7313387279
H        0.1563045558   -1.0868184079    2.6244179433
H        1.4593013074   -0.3945983466    1.6460198355
H       -1.1836967064   -1.4723648471    0.5203212157
H        0.6786193085   -3.1594898788   -0.5434644321
H       -0.0507143102   -3.4928480231    1.0472232380
H        1.5421873165   -2.7427393866    0.9228953297
H        1.3327002090   -0.4969283552   -0.9078604766
H       -0.0455241720   -1.2594155914   -1.6851443350
H       -1.5439266119    0.6297820787   -1.1086257039
H       -0.6115504661    2.7771853572   -1.0490188542
H        1.8820724675    2.9034567939   -1.5830331932
H        2.1658089476    1.4280654567   -0.6448997859
H        1.6391960957    2.9114674489    0.1607167628
21   
torsion grid (-135,)
C        0.3894785080   -0.5513358551    1.6587319425
C       -0.1004871901   -1.3276615337    0.4283721115
C        0.4889476106   -2.7595301164    0.4001944971
C        0.2450951484   -0.5664126381   -0.8753443126
C       -0.4393848043    0.7695765780   -0.9909253223
C        0.1140555451    1.9899064888   -0.9192721916
C        1.5653758988    2.3271986170   -0.7051691794
H       -0.0580445937    0.4456953206    1.7095970437
H        0.1428937054   -1.0843776177    2.5840710257
H        1.4793894707   -0.4297607819    1.6251314042
H       -1.1947386314   -1.3981175604    0.4831858961
H        0.8561842213   -3.0290861150   -0.5959228870
H       -0.2424686662   -3.5128738206    0.7088966832
H        1.3460099117   -2.8438694570    1.0779690344
H        1.3337821175   -0.4633247804   -0.9450629599
H       -0.0617620162   -1.1886913509   -1.7267059633
H       -1.5207473539    0.7197678273   -1.1309573964
H       -0.5510226615    2.8487608074   -1.0184268848
H        1.9500156351    2.9381055047   -1.5314076583
H        2.1975974163    1.4411709585   -0.6172038854
H        1.6912393326    2.9196309295    0.2099768519
21   
torsion grid (-120,)
C        0.3326213545   -0.4593671764    1.6051291941
C       -0.1445556175   -1.1766858193    0.3346372767
C        0.3791987981   -2.6352615033    0.2760514952
C        0.2581047520   -0.3942832304   -0.9385006974
C       -0.4010974741    0.9549497497   -1.0480158438
C        0.1675446867    2.1634390843   -0.9180801632
C        1.6131623798    2.4698041369   -0.6310484028
H       -0.0512675346    0.5640437156    1.6555821062
H        0.0021371853   -0.9932809895    2.5030275924
H        1.4286446319   -0.4092271948    1.6319274254
H       -1.2417566550   -1.2025069070    0.3643424062
H        0.9988476015   -2.8067431321   -0.6109593713
H       -0.4406199580   -3.3599196919    0.2379771097
H        0.9893168469   -2.8812942451    1.1512499334
H        1.3499966630   -0.3078042723   -0.9674965956
H       -0.0276533513   -0.9937492435   -1.8134292920
H       -1.4758387976    0.9267186418   -1.2362936487
H       -0.4788772282    3.0358356215   -1.0221594339
H        2.0443561988    3.0949763317   -1.4229170747
H        2.2262658359    1.5709225361   -0.5383724256
H        1.7075092503    3.0362178560    0.3041393533
21   
torsion grid (-105,)
C        0.3605401131   -0.3741138465    1.5828494648
C       -0.1033073769   -1.0681152535    0.2948711585
C        0.4130983450   -2.5243977530    0.2133228767
C        0.3000159590   -0.2711462933   -0.9671837063
C       -0.3876592972    1.0637895378   -1.0786747415
C        0.1498129449    2.2827492527   -0.9175529515
C        1.5802239939    2.6168973241   -0.5882245955
H       -0.0029522517    0.6568178050    1.6339115699
H       -0.0039052373   -0.9094534859    2.4663200039
H        1.4565672237   -0.3468955381    1.6382680352
H       -1.2009931475   -1.0965918171    0.3238756460
H        1.2380808322   -2.6165799412   -0.5024566176
H       -0.3713988591   -3.2038047734   -0.1380125469
H        0.7578192970   -2.8946761126    1.1837363486
H        1.3899232880   -0.1598400710   -0.9787313349
H        0.0418214569   -0.8725143484   -1.8495483067
H       -1.4560633366    1.0138326696   -1.2958116073
H       -0.5131466688    3.1419228076   -1.0273035266
H        2.0185515978    3.2608055473   -1.3609380272
H        2.2101814715    1.7304413034   -0.4892318987
H        1.6371801575    3.1738512206    0.3556163568
21   
torsion grid (-90,)
C        0.3934781327   -0.3912517404    1.5978039434
C       -0.1137357652   -1.0825245895    0.3251644512
C        0.3835646864   -2.5382847419    0.2340065226
C        0.2636835950   -0.2978429475   -0.9516988082
C       -0.4247335340    1.0371444869   -1.0594059087
C        0.1168118243    2.2562788515   -0.9140214705
C        1.5532338987    2.5904322032   -0.6118751988
H        0.0514690156    0.6469254811    1.6507126425
H        0.0392276162   -0.9140691657    2.4927633441
H        1.4908822551   -0.3848455166    1.6280869516
H       -1.2109139542   -1.1040441418    0.3856836910
H        1.3437823893   -2.5954823470   -0.2928721629
H       -0.3166633164   -3.1549655733   -0.3414305164
H        0.4980085477   -2.9970544940    1.2211560043
H        1.3531286547   -0.1871718986   -0.9865582383
H       -0.0126832619   -0.9062964327   -1.8237153443
H       -1.4967404181    0.9872134939   -1.2577409053
H       -0.5470375020    3.1156265121   -1.0167374016
H        1.9791208951    3.2279977077   -1.3967229610
H        2.1834210238    1.7036610780   -0.5173535740
H        1.6274549293    3.1540845241    0.3267599597
21   
torsion grid (-75,)
C        0.4274393870   -0.4201918017    1.6039030267
C       -0.1197637535   -1.1187431211    0.3521521328
C        0.3742473878   -2.5705399651    0.2623789583
C        0.2352789842   -0.3444465047   -0.9377935519
C       -0.4448230042    0.9956138179   -1.0364362479
C        0.1099471888    2.2114215827   -0.9151536394
C        1.5566071429    2.5365975647   -0.6550402353
H        0.0843459639    0.6171683387    1.6634396493
H        0.1068548260   -0.9389700093    2.5139489985
H        1.5250625728   -0.4104381111    1.5950983111
H       -1.2156812646   -1.1394907589    0.4366403132
H        1.4259393177   -2.6075918070   -0.0480156453
H       -0.1978006227   -3.1354083422   -0.4829293998
H        0.2808039806   -3.0897946824    1.2220700335
H        1.3244264675   -0.2418430244   -0.9978481095
H       -0.0653267307   -0.9542177261   -1.8007134678
H       -1.5222546540    0.9528770609   -1.2048499133
H       -0.5499368290    3.0751695490   -1.0058530421
H        1.9639303515    3.1698609020   -1.4530815816
H        2.1834009648    1.6458305822   -0.5769544763
H        1.6615433430    3.1014312346    0.2799733776
21   
torsion grid (-60,)
C        0.3103797818   -0.4585329157    1.5449301679
C       -0.2129967060   -1.0931957688    0.2497956590
C        0.2567911666   -2.5487377668    0.1227332395
C        0.2169616400   -0.2743756868   -0.9903316678
C       -0.3975483769    1.0995287960   -1.0418646482
C        0.2096050243    2.2818041513   -0.8568090439
C        1.6636299176    2.5279983856   -0.5546187651
H       -0.0293720359    0.5763056865    1.6482410442
H       -0.0283475768   -1.0187008604    2.4236687883
H        1.4077485395   -0.4538882047    1.5558378430
H       -1.3116131296   -1.0907430029    0.2867542756
H        1.3524224265   -2.6047450090    0.1096203278
H       -0.1149565879   -3.0123572865   -0.7979910137
H       -0.0925265242   -3.1521813275    0.9681684712
H        1.3110240946   -0.2206443436   -1.0151908254
H       -0.0857306001   -0.8260233753   -1.8906435039
H       -1.4719687721    1.1148272172   -1.2330769465
H       -0.4080383962    3.1784462897   -0.9224717364
H        2.1157946577    3.1770139972   -1.3149610240
H        2.2478274730    1.6067091505   -0.5057525353
H        1.7742651288    3.0448449244    0.4071262448
21   
torsion grid (-45,)
C        0.3158441365   -0.4840615922    1.5205105133
C       -0.2022330354   -1.0974668915    0.2128290358
C        0.2776443908   -2.5503276744    0.0648060243
C        0.2418204138   -0.2517263932   -1.0055418948
C       -0.3427039686    1.1359761709   -1.0162424856
C        0.2921151324    2.3008569988   -0.8145642829
C        1.7551433802    2.5101561410   -0.5286250228
H       -0.0531136836    0.5365166924    1.6583959010
H        0.0057248421   -1.0793605829    2.3870016641
H        1.4123357706   -0.4469706937    1.5174812782
H       -1.3007432679   -1.0951527792    0.2362023772
H        1.3413033909   -2.6383935209    0.3170834499
H        0.1257258506   -2.9324969282   -0.9503190654
H       -0.2613425494   -3.2103481368    0.7545923002
H        1.3367573229   -0.2215410686   -1.0339284658
H       -0.0769212495   -0.7703610719   -1.9197242426
H       -1.4192448970    1.1784165625   -1.1912150959
H       -0.3072717953    3.2114433133   -0.8514350525
H        2.2092688055    3.1683303395   -1.2798633735
H        2.3210344764    1.5763767480   -0.5111543702
H        1.8904747722    3.0009972186    0.4435438524
21   
torsion grid (-30,)
C        0.3484327029   -0.4596614265    1.5451924963
C       -0.1903449239   -1.1066968357    0.2619397005
C        0.3207779428   -2.5556441606    0.1221865068
C        0.2047737053   -0.2672803029   -0.9783583573
C       -0.3930228330    1.1145586664   -0.9831511829
C        0.2382386395    2.2885271139   -0.8285337786
C        1.7102467305    2.5166294208   -0.6114523532
H       -0.0492097613    0.5499499368    1.6841157165
H        0.0864018632   -1.0543298989    2.4279990755
H        1.4423177401   -0.3876033567    1.5050879981
H       -1.2872193756   -1.1236575482    0.3119558238
H        1.3042085460   -2.6741973615    0.5912943273
H        0.3880911875   -2.8744589591   -0.9230133579
H       -0.3459847973   -3.2559987044    0.6385610522
H        1.2978427309   -0.2279650790   -1.0439830487
H       -0.1399801682   -0.7977389905   -1.8761877117
H       -1.4767263067    1.1441136508   -1.1105359876
H       -0.3715027919    3.1926414761   -0.8530656991
H        2.1239877664    3.1654569389   -1.3935249891
H        2.2859451563    1.5887277980   -0.6028815107
H        1.8833014861    3.0261850431    0.3449743270
21   
torsion grid (-15,)
C        0.3684810786   -0.4531674037    1.5312189308
C       -0.1914756979   -1.0791089736    0.2462701406
C        0.2858211893   -2.5436845026    0.0851148022
C        0.2004445427   -0.2346791836   -0.9915231876
C       -0.3832079711    1.1531181731   -0.9814361893
C        0.2606997473    2.3185793461   -0.8149268382
C        1.7352743493    2.5281878013   -0.5966417472
H        0.0012602294    0.5674283120    1.6743885636
H        0.0883174342   -1.0435881941    2.4110948701
H        1.4642223109   -0.4143232480    1.4915416082
H       -1.2872533702   -1.0708578120    0.3116649914
H        1.1234087162   -2.7667373434    0.7548166899
H        0.6019054842   -2.7650232921   -0.9394779586
H       -0.5094160819   -3.2525184688    0.3404969180
H        1.2931997305   -0.2066417928   -1.0672649711
H       -0.1584263111   -0.7557764510   -1.8892912517
H       -1.4666268189    1.1954339511   -1.1074262602
H       -0.3391784212    3.2294756574   -0.8294544165
H        2.1563298933    3.1779771844   -1.3740155413
H        2.3002159430    1.5936681333   -0.5948687076
H        1.9142859809    3.0286624309    0.3634595760
21   
torsion grid (0,)
C       -0.2546985766   -0.3052330562    1.3347277426
C       -0.2374784474   -0.8917891837   -0.0837490667
C        0.3412284988   -2.3305626253   -0.0958863321
C        0.5375624109    0.0233012160   -1.0619288352
C       -0.1077641701    1.3684344190   -1.2646971918
C        0.3267261483    2.5644267674   -0.8386597071
C        1.5745823335    2.8582239247   -0.0496075220
H       -0.6781449443    0.7036691096    1.3459092415
H       -0.8472667213   -0.9324577830    2.0099471283
H        0.7631076407   -0.2473247061    1.7412311266
H       -1.2769910414   -0.9326352695   -0.4347676440
H        0.6286892036   -2.6577335640    0.9087661576
H        1.2386405243   -2.3979042319   -0.7208434856
H       -0.3783725256   -3.0580053717   -0.4846682892
H        1.5685881547    0.1257410694   -0.7055066754
H        0.5957132271   -0.4855088993   -2.0336614764
H       -1.0533962460    1.3461127179   -1.8093154884
H       -0.2865544160    3.4346344325   -1.0761478383
H        2.2169698289    3.5682509360   -0.5853310477
H        2.1629049465    1.9627917990    0.1614707674
H        1.3209817887    3.3251773539    0.9105816659
21   
torsion grid (15,)
C       -0.1744791069   -0.3323188374    1.3863795133
C       -0.2150070888   -0.9288260555   -0.0270464786
C        0.3422448163   -2.3717741735   -0.0530908604
C        0.5224795491   -0.0361281389   -1.0517802424
C       -0.1385834818    1.2991638675   -1.2694566088
C        0.2912936064    2.5056583124   -0.8690797596
C        1.5483315968    2.8226062670   -0.1038311819
H       -0.5628720130    0.6906679468    1.3989361461
H       -0.7718566100   -0.9338463600    2.0800057206
H        0.8541378551   -0.3054100081    1.7690401268
H       -1.2706373050   -0.9650301390   -0.3291261796
H        0.4147358403   -2.7956964612    0.9539030449
H        1.3598073102   -2.3890482782   -0.4623401345
H       -0.2664323616   -3.0398325888   -0.6700960486
H        1.5628687686    0.0825481385   -0.7292944218
H        0.5558968383   -0.5708721829   -2.0107844740
H       -1.0918023300    1.2592745973   -1.7994655390
H       -0.3331304538    3.3665878224   -1.1112233490
H        2.1779531132    3.5269076256   -0.6618283383
H        2.1457638042    1.9352049136    0.1153708418
H        1.3053591275    3.3055554544    0.8511644557
21   
torsion grid (30,)
C       -0.1032485739   -0.4159059086    1.4450242624
C       -0.2192082817   -1.0313300552    0.0443811368
C        0.3239785088   -2.4729028930    0.0141290151
C        0.4755302405   -0.1645155207   -1.0303496319
C       -0.1926849913    1.1670617398   -1.2496324228
C        0.2535140420    2.3806899803   -0.8908228734
C        1.5403534607    2.7111106105   -0.1829004654
H       -0.4702584527    0.6149230794    1.4585683985
H       -0.6807716601   -0.9943396429    2.1741180014
H        0.9418402836   -0.4040506656    1.7812197200
H       -1.2892838465   -1.0674553804   -0.2043871705
H        0.1969124720   -2.9715344524    0.9809879076
H        1.4030661426   -2.4715210073   -0.1871672907
H       -0.1537299734   -3.0766655683   -0.7640411433
H        1.5284566486   -0.0402173418   -0.7541467164
H        0.4689653765   -0.7206553044   -1.9777593065
H       -1.1660808633    1.1179020421   -1.7406713315
H       -0.3794438139    3.2374828946   -1.1253356884
H        2.1491258166    3.4005545035   -0.7811637521
H        2.1439740458    1.8270802961    0.0329085724
H        1.3362542695    3.2164437094    0.7695911714
21   
torsion grid (45,)
C       -0.0633649038   -0.4536840581    1.4658924705
C       -0.2243608830   -1.0849161534    0.0769126761
C        0.3200984301   -2.5210228214    0.0520010764
C        0.4479015289   -0.2308059920   -1.0225515181
C       -0.2188284854    1.1028022894   -1.2347054799
C        0.2429434062    2.3169645979   -0.8981056292
C        1.5501271707    2.6467881429   -0.2282222930
H       -0.4388417899    0.5739554640    1.4822364260
H       -0.6074409120   -1.0284056627    2.2233572280
H        0.9935106769   -0.4292353228    1.7615443104
H       -1.3001403755   -1.1263713691   -0.1460174784
H       -0.0078834012   -3.0874392248    0.9305880971
H        1.4176380114   -2.5165116857    0.0687092833
H        0.0043576248   -3.0588713272   -0.8484700275
H        1.5080992655   -0.1093222315   -0.7743274025
H        0.4143802040   -0.7931886520   -1.9656029872
H       -1.2054095460    1.0548591956   -1.6988166813
H       -0.3920368641    3.1749889777   -1.1224453742
H        2.1441569618    3.3309243545   -0.8470248856
H        2.1566536111    1.7618554790   -0.0246308935
H        1.3744557594    3.1578521533    0.7268860556
21   
torsion grid (60,)
C       -0.0139311122   -0.4830722460    1.4921782140
C       -0.1990900531   -1.1432627320    0.1195222035
C        0.3819489937   -2.5637676063    0.1104623372
C        0.4365907629   -0.2901755956   -1.0035896515
C       -0.2411879566    1.0402697940   -1.1997986044
C        0.2309559197    2.2589255850   -0.8954857426
C        1.5636774561    2.5990789092   -0.2837090529
H       -0.4371808794    0.5256511508    1.5106937647
H       -0.4968832036   -1.0707512739    2.2809188500
H        1.0519416799   -0.4041979931    1.7412010036
H       -1.2769406701   -1.2137445359   -0.0842942924
H       -0.1097243235   -3.1982765001    0.8563501055
H        1.4549450885   -2.5488744977    0.3382593041
H        0.2552370756   -3.0407565736   -0.8682022257
H        1.5036121246   -0.1637510322   -0.7891818024
H        0.3752088604   -0.8550452852   -1.9436020567
H       -1.2460807412    0.9855435278   -1.6221355516
H       -0.4152063828    3.1130311655   -1.1022200266
H        2.1276814944    3.2816740907   -0.9315975285
H        2.1825761425    1.7182847203   -0.1003751411
H        1.4261287892    3.1157606417    0.6746432826
21   
torsion grid (75,)
C        0.0159208002   -0.4682662863    1.5176266635
C       -0.1858475986   -1.1638848236    0.1644998666
C        0.4348451197   -2.5703261312    0.1754908158
C        0.4118862382   -0.3153379981   -0.9841294348
C       -0.2735251745    1.0129749049   -1.1665313435
C        0.2116965538    2.2357466086   -0.9019936085
C        1.5704607185    2.5846073240   -0.3560600450
H       -0.4573084661    0.5178736845    1.5366901352
H       -0.4041972837   -1.0647935265    2.3355296439
H        1.0852653388   -0.3312847000    1.7211820007
H       -1.2642464325   -1.2625383171   -0.0211432589
H       -0.1809665841   -3.2726869812    0.7481216360
H        1.4419843967   -2.5581683812    0.6078562888
H        0.5139426528   -2.9755274475   -0.8402991265
H        1.4854297372   -0.1868414965   -0.8062664951
H        0.3193334318   -0.8854916902   -1.9182716947
H       -1.2965403108    0.9528880004   -1.5422893192
H       -0.4434392943    3.0869579543   -1.0917997733
H        2.1032240203    3.2595652361   -1.0375106120
H        2.1985101982    1.7067543630   -0.1905015081
H        1.4760639541    3.1131024787    0.6010863102
21   
torsion grid (90,)
C        0.0271606272   -0.4922350259    1.5011839045
C       -0.1666059769   -1.1591568586    0.1321057546
C        0.4545480258   -2.5714948330    0.1164730465
C        0.4417268078   -0.2831052412   -0.9909438610
C       -0.2248371841    1.0594637122   -1.1326635231
C        0.2817411257    2.2680937501   -0.8442753120
C        1.6510988818    2.5834919228   -0.3045494895
H       -0.4539620272    0.4893610820    1.5428823833
H       -0.3887429586   -1.1111740032    2.3045818726
H        1.0952592641   -0.3519255887    1.7084892794
H       -1.2433118183   -1.2470139906   -0.0649691187
H       -0.2687323391   -3.3323159714    0.4290186669
H        1.3321941330   -2.6340805525    0.7687151437
H        0.7752237090   -2.8514737805   -0.8939054868
H        1.5173396578   -0.1760430431   -0.8112593809
H        0.3393497041   -0.8234128285   -1.9416464534
H       -1.2524719625    1.0239900699   -1.4990222230
H       -0.3621546941    3.1333824038   -1.0070053326
H        2.1885122164    3.2634807086   -0.9773177623
H        2.2662197370    1.6923674715   -0.1630491951
H        1.5742986827    3.0938573629    0.6639289698
21   
torsion grid (105,)
C        0.0441558021   -0.4348987258    1.5127878718
C       -0.1978563781   -1.1194151675    0.1600638878
C        0.4079370257   -2.5447261100    0.1398493525
C        0.3716489140   -0.2633269458   -0.9980280662
C       -0.3017179268    1.0754413736   -1.1429239121
C        0.2099054571    2.2892171098   -0.8867691565
C        1.5924743326    2.6147505762   -0.3883080831
H       -0.4171070005    0.5564564694    1.5503088387
H       -0.3642182487   -1.0333339217    2.3351534642
H        1.1196243363   -0.3126158357    1.6923616811
H       -1.2820522337   -1.1957178568    0.0057286874
H       -0.3649120611   -3.3157620255    0.2236369251
H        1.1238771532   -2.6924721614    0.9549349791
H        0.9399139982   -2.7400058218   -0.7981197927
H        1.4523794030   -0.1522366000   -0.8555120993
H        0.2390387646   -0.8218606620   -1.9343809848
H       -1.3387090078    1.0324733599   -1.4809680054
H       -0.4397363901    3.1509409303   -1.0454964025
H        2.1101888335    3.2863563696   -1.0845200348
H        2.2131292842    1.7268491910   -0.2507818482
H        1.5403368322    3.1383876507    0.5747212848
21   
torsion grid (120,)
C        0.1438297170   -0.4070363658    1.6048191700
C       -0.1592145161   -1.1828081992    0.3153899393
C        0.4668912297   -2.6013322382    0.3460079357
C        0.3082634046   -0.4004336345   -0.9354461082
C       -0.4288686914    0.8958469351   -1.1434086957
C        0.0401267524    2.1442305082   -0.9941808633
C        1.4272032237    2.5587504407   -0.5815661367
H       -0.3127137904    0.5872798554    1.5907924805
H       -0.2334007235   -0.9442626435    2.4820768477
H        1.2262048232   -0.2784513999    1.7329974194
H       -1.2498488120   -1.2860340912    0.2426360254
H       -0.2927641039   -3.3843380086    0.2552153230
H        1.0041647631   -2.7826866335    1.2828703129
H        1.1842322162   -2.7456568952   -0.4691613837
H        1.3893656389   -0.2369857433   -0.8642696867
H        0.1493914689   -1.0369184985   -1.8164384757
H       -1.4762414025    0.7872068328   -1.4306767065
H       -0.6520155994    2.9659890728   -1.1823862837
H        1.8877930423    3.1964004403   -1.3464736739
H        2.0892048964    1.7079752278   -0.4071832223
H        1.3926628908    3.1498368503    0.3424077314
21   
torsion grid (135,)
C        0.2455101362   -0.4328832383    1.6432360982
C       -0.1116903269   -1.2220415598    0.3763963473
C        0.4965542081   -2.6446125816    0.3984843757
C        0.3024957470   -0.4677621803   -0.9085137912
C       -0.4588772949    0.8132688757   -1.1243896677
C       -0.0050113536    2.0706654649   -1.0074011911
C        1.3849634935    2.5117301645   -0.6337166666
H       -0.1816869565    0.5743386840    1.6195027186
H       -0.1287813807   -0.9423256543    2.5378064092
H        1.3338494529   -0.3336916661    1.7469619075
H       -1.2056165417   -1.3196316777    0.3566389282
H       -0.2293039003   -3.4013772854    0.0834458542
H        0.8131622221   -2.9231768330    1.4097604365
H        1.3773245251   -2.7213517757   -0.2483696496
H        1.3829086335   -0.2881753223   -0.8772942324
H        0.1245002869   -1.1297989846   -1.7668697830
H       -1.5106347317    0.6843467123   -1.3858097761
H       -0.7130691323    2.8791010085   -1.1940226808
H        1.8193953412    3.1414338535   -1.4202088459
H        2.0625429286    1.6734452700   -0.4587224906
H        1.3627421532    3.1191916129    0.2799527535
21   
torsion grid (150,)
C        0.3159730163   -0.4708585824    1.6835189705
C       -0.0992234659   -1.2753326050    0.4446801967
C        0.4910831982   -2.6987215274    0.4687614954
C        0.2748481062   -0.5519235378   -0.8692310399
C       -0.4902093192    0.7265019062   -1.0883322622
C       -0.0306055626    1.9847389561   -1.0087284473
C        1.3707895981    2.4292109382   -0.6849684155
H       -0.0897072928    0.5450374499    1.6529951397
H       -0.0402460321   -0.9542086243    2.5995937579
H        1.4090268134   -0.3935131589    1.7508759916
H       -1.1942854774   -1.3650684673    0.4699682374
H       -0.1584925908   -3.4122180653   -0.0496539430
H        0.5922186382   -3.0629431694    1.4976096296
H        1.4862346511   -2.7317050558    0.0107088964
H        1.3559646465   -0.3742480958   -0.8764835582
H        0.0686108564   -1.2322315398   -1.7067990670
H       -1.5493815732    0.5952281296   -1.3163547098
H       -0.7422291661    2.7912634780   -1.1899447828
H        1.7840372566    3.0401822013   -1.4972476142
H        2.0508340454    1.5926516165   -0.5113276744
H        1.3767196407    3.0564758116    0.2154576276
21   
torsion grid (165,)
C        0.3617636443   -0.5022157612    1.6978086611
C       -0.0944747769   -1.3189885367    0.4818624553
C        0.4946845155   -2.7374545522    0.5097804742
C        0.2547705616   -0.6117301581   -0.8478934701
C       -0.5052088885    0.6709279594   -1.0604413350
C       -0.0337515445    1.9261100111   -1.0060370003
C        1.3790525030    2.3626404482   -0.7237819329
H       -0.0473053396    0.5123545268    1.6724267437
H        0.0411938653   -0.9768882723    2.6316020079
H        1.4562369399   -0.4217971250    1.7236252217
H       -1.1889861044   -1.4078479124    0.5335694858
H       -0.0240429537   -3.3995332770   -0.1925578258
H        0.3965582874   -3.1835631481    1.5061373710
H        1.5612153878   -2.7296323480    0.2544557492
H        1.3366636699   -0.4422494881   -0.8823237528
H        0.0234431390   -1.2972469405   -1.6745070154
H       -1.5710086015    0.5460961320   -1.2593289425
H       -0.7435935612    2.7364351433   -1.1770110048
H        1.7740512140    2.9653079243   -1.5511817374
H        2.0577385598    1.5223599482   -0.5633197664
H        1.4141669254    2.9956798039    0.1719420995
21   
torsion grid (180,)
C        0.3179559089   -0.5069111314    1.6818699767
C       -0.1396588937   -1.3145068122    0.4601740596
C        0.4599216386   -2.7271474296    0.4796277545
C        0.2211360912   -0.5906690666   -0.8585257164
C       -0.5146987743    0.7096566238   -1.0470832678
C       -0.0174302156    1.9545858705   -0.9877675413
C        1.4072878749    2.3606990058   -0.7206240178
H       -0.1137062164    0.4984147288    1.6806010881
H        0.0262013102   -1.0028262264    2.6144223861
H        1.4104234884   -0.4028183550    1.6879184544
H       -1.2342348387   -1.4070732938    0.5013100826
H        0.1379801879   -3.3112121835   -0.3900368612
H        0.1647505802   -3.2725025160    1.3829238551
H        1.5561693701   -2.6838142514    0.4618350905
H        1.3059789243   -0.4410170416   -0.8930303743
H       -0.0257358416   -1.2560646541   -1.6968732750
H       -1.5854066763    0.6082725328   -1.2327825445
H       -0.7132802905    2.7803566925   -1.1415740097
H        1.8018628866    2.9661259646   -1.5461920836
H        2.0721100631    1.5058093863   -0.5805301956
H        1.4671892697    2.9816618396    0.1822266058
