21
0 1 C6H10N4O
C                    13.028875072590     8.297488381392    -4.445176180207
C                    13.441858609986     7.113410461393    -5.008448066890
C                    12.183536259479     6.745658330205    -3.235804552640
C                    11.392587020928     4.712772856354    -2.093494605755
C                    10.418204270331     2.835550632345    -0.882793118815
C                     9.955961314469     5.166252611147    -0.115302221346
N                    12.237793947203     8.061031963724    -3.330766292113
N                    12.886540759498     6.115402287302    -4.214390462571
N                    11.473318396732     6.088812709414    -2.231048062046
N                    10.669052678263     4.267101688106    -1.012808821456
O                    11.950127664414     3.948816994945    -2.896295275949
H                    13.250396072041     9.305477425063    -4.770065946893
H                    14.055901171163     6.885843734021    -5.867425856386
H                    10.679928476467     2.497577033210     0.126013810569
H                    11.032880542385     2.306444172668    -1.608478439839
H                     9.362159739266     2.601775005258    -1.070801277889
H                     9.118538600838     5.678183052796    -0.609751330882
H                    10.626841080019     5.914249773783     0.322889556206
H                     9.547769063958     4.582141593614     0.710884086272
H                    12.942579223788     5.104226824225    -4.286075003613
H                    11.002102225243     6.722226559112    -1.600678055539
