18
0 1 C7H8N2O
C                     1.362566726105     0.011809637227     1.584501145252
C                     0.220893527573    -0.405887868971     0.895408449513
C                     1.626039529541    -0.534690496357     2.841042798569
C                    -0.611125683474    -1.356446410656     1.496307799266
C                     0.732663760821    -1.478903933406     3.355688332066
C                     1.006343900516    -2.079813168190     4.717824831807
C                     0.140352750818    -3.680751457206     6.388564706473
N                    -0.367608385491    -1.886567752846     2.700365921418
N                     0.075982380762    -2.983523095779     5.116923563544
O                     1.998102544666    -1.750738969753     5.374631505155
H                     2.033156110952     0.748714340633     1.150117903711
H                    -0.025321595207    -0.008668393678    -0.085087970068
H                     2.492388381866    -0.257506092256     3.431904249315
H                    -1.509031060948    -1.705042771327     0.988684711943
H                     0.193806306145    -4.764994608845     6.238268408944
H                    -0.736022437994    -3.452318853040     7.005792464658
H                     1.038588202576    -3.349678461193     6.910956436524
H                    -0.685327700429    -3.150019153467     4.467444481117
