
  -OEChem-12122420533D

 19 18  0     0  0  0  0  0  0999 V2000
    0.7895  -11.6411   -4.5974 C   0  0  0  0  0  0  0  0  0  0  0  0
    2.0384   -9.8777   -3.4761 C   0  0  0  0  0  0  0  0  0  0  0  0
   -0.2435  -10.3869   -2.6902 C   0  0  0  0  0  0  0  0  0  0  0  0
   -1.5997  -10.9432   -6.2618 C   0  0  0  0  0  0  0  0  0  0  0  0
   -0.5145  -12.4405   -4.7799 C   0  0  0  0  0  0  0  0  0  0  0  0
    0.8019  -10.6245   -3.6798 N   0  0  0  0  0  0  0  0  0  0  0  0
    1.7723  -11.9316   -5.2855 O   0  0  0  0  0  0  0  0  0  0  0  0
   -1.6743  -11.6590   -5.0318 O   0  0  0  0  0  0  0  0  0  0  0  0
    1.8177   -8.8056   -3.4255 H   0  0  0  0  0  0  0  0  0  0  0  0
    2.7156  -10.0775   -4.3049 H   0  0  0  0  0  0  0  0  0  0  0  0
    2.5264  -10.1771   -2.5388 H   0  0  0  0  0  0  0  0  0  0  0  0
    0.0701  -10.7456   -1.6999 H   0  0  0  0  0  0  0  0  0  0  0  0
   -1.1734  -10.8702   -2.9781 H   0  0  0  0  0  0  0  0  0  0  0  0
   -0.4358   -9.3106   -2.6151 H   0  0  0  0  0  0  0  0  0  0  0  0
   -2.5506  -10.4191   -6.3776 H   0  0  0  0  0  0  0  0  0  0  0  0
   -1.4544  -11.6283   -7.1087 H   0  0  0  0  0  0  0  0  0  0  0  0
   -0.7803  -10.2119   -6.2554 H   0  0  0  0  0  0  0  0  0  0  0  0
   -0.3192  -13.1336   -5.6063 H   0  0  0  0  0  0  0  0  0  0  0  0
   -0.7293  -13.0251   -3.8794 H   0  0  0  0  0  0  0  0  0  0  0  0
  1  5  1  0  0  0  0
  1  6  1  0  0  0  0
  1  7  2  0  0  0  0
  2  6  1  0  0  0  0
  2  9  1  0  0  0  0
  2 10  1  0  0  0  0
  2 11  1  0  0  0  0
  3  6  1  0  0  0  0
  3 12  1  0  0  0  0
  3 13  1  0  0  0  0
  3 14  1  0  0  0  0
  4  8  1  0  0  0  0
  4 15  1  0  0  0  0
  4 16  1  0  0  0  0
  4 17  1  0  0  0  0
  5  8  1  0  0  0  0
  5 18  1  0  0  0  0
  5 19  1  0  0  0  0
M  END
$$$$
