21
0 1 C8H9NO3
C                     1.225872330806     1.782001547544     0.564717657032
C                    -0.151406537776     1.567836164239     0.252442522529
C                     2.140165157012     0.968882276291    -0.018891467668
C                    -0.538173953516     0.554234460693    -0.579255414450
C                     0.460235051145    -0.282238713227    -1.232467418757
C                    -1.996338236095     0.439334064770    -0.955163563483
C                    -3.951128435710    -0.947120302719    -1.368343182202
C                    -1.981597602718    -1.970172867827    -0.282129697429
N                    -2.592437101865    -0.782900834184    -0.864835119747
O                     0.276283776240    -1.161856895781    -2.046450455387
O                    -2.595786661314     1.460253532417    -1.310551574980
O                     1.802063518159    -0.016301303975    -0.872119487474
H                     1.547353032065     2.567651372669     1.238229634695
H                    -0.914808445896     2.219418625534     0.669190859439
H                     3.213670710367     1.026024942916     0.131670720242
H                    -3.986819856330    -1.796730872405    -2.059862472959
H                    -4.250723865107    -0.038294221065    -1.887282867054
H                    -4.650439294673    -1.135849931418    -0.544117211562
H                    -2.719008194246    -2.468125231041     0.357373918317
H                    -1.128743118521    -1.701616333013     0.341140317274
H                    -1.644106909538    -2.667339336688    -1.055521248888
