19
0 1 C5H11NO2
C                    -1.785174890982    -1.426069917590     1.186185315323
C                     0.204100353381    -1.131684761717    -0.197688090865
C                    -0.448679672984    -3.418068789431     0.472664804686
C                    -4.713100872139    -2.564665051041     3.116845108215
C                    -2.719670702946    -2.410468595758     1.904336078927
N                    -0.666366772960    -1.984185580909     0.604777615446
O                    -2.021330672493    -0.224247801992     1.154133252760
O                    -3.807856780440    -1.706675600528     2.443448305971
H                     1.251520401893    -1.309869454972     0.070539973070
H                    -0.049969283235    -0.090740064229    -0.004864106960
H                     0.077233652027    -1.337207776279    -1.269361939640
H                    -0.882380069544    -3.818988869750    -0.455126252642
H                    -0.864569732084    -3.967686729305     1.317424216378
H                     0.627641970983    -3.614939735431     0.454838851207
H                    -5.520318293463    -1.936347162007     3.499033595886
H                    -4.230574606711    -3.082790866633     3.960459253421
H                    -5.136985063192    -3.321349229100     2.437992864645
H                    -3.065055714672    -3.178472287112     1.191088967696
H                    -2.161572745897    -2.935170427755     2.698867302141
