22
0 1 C8H10N2O2
C                     2.733096960677    -6.384108806813     0.409630839925
C                     2.324046003722    -5.932832291919    -0.877113629150
C                     1.807366455905    -6.588930889117     1.391005799511
C                     0.990288711570    -5.703529858005    -1.109777116243
C                     0.391065207833    -6.356484788022     1.173339538534
C                     0.546226337295    -5.105450059681    -2.425185230950
C                    -1.388915105020    -5.726871986478    -0.405509972941
C                     0.754856378807    -5.267023218822    -4.874174858417
N                     0.046260708799    -5.921050859838    -0.137650163426
N                     1.058554852500    -5.729222914446    -3.524971449705
O                    -0.481706956229    -6.522564711336     2.029870550194
O                    -0.179169365041    -4.114335117273    -2.486821458777
H                     3.788311413785    -6.557735940174     0.606967615332
H                     3.048126494311    -5.712747034909    -1.652541655603
H                     2.078958790416    -6.927461066258     2.385126008092
H                    -1.936011287939    -6.265271348319     0.365393175602
H                    -1.638635211888    -6.117553498499    -1.392603882937
H                    -1.643501610186    -4.666657946460    -0.370377818548
H                    -0.226813321902    -5.619201669992    -5.211743557609
H                     1.523458918843    -5.632120261565    -5.558986663983
H                     0.749303246076    -4.176077815555    -4.884126575624
H                     1.522006502029    -6.618757004785    -3.397871497619
