16
0 1 C5H9NO
C                     1.575039446141    -0.918909638072     1.720691906724
C                     1.488737786973    -0.891525569395    -0.853949632309
C                     2.749421357945    -0.185529704689    -0.451849380975
C                     1.529233411693    -0.117075187256     0.455814558732
C                     0.860645988903    -0.984536618791     4.096765338482
N                     0.921243844040    -0.356728692544     2.785544359622
O                     2.158268875609    -2.003478238987     1.791520022077
H                     0.888012573565    -0.473789311551    -1.656223284335
H                     1.472728657612    -1.972326439154    -0.760844182991
H                     3.569591719734    -0.797991417743    -0.092319943959
H                     3.028292699617     0.725141702567    -0.973329169355
H                     0.990752217889     0.827001505110     0.487151438295
H                    -0.177379407251    -1.161088742142     4.400341900330
H                     1.353792317064    -0.365729838144     4.855291434243
H                     1.378859473284    -1.941322057508     4.028974070597
H                     0.470739441031     0.538187749166     2.654177244221
