
  -OEChem-12122420533D

 18 18  0     0  0  0  0  0  0999 V2000
    1.3626    0.0118    1.5845 C   0  0  0  0  0  0  0  0  0  0  0  0
    0.2209   -0.4059    0.8954 C   0  0  0  0  0  0  0  0  0  0  0  0
    1.6260   -0.5347    2.8410 C   0  0  0  0  0  0  0  0  0  0  0  0
   -0.6111   -1.3564    1.4963 C   0  0  0  0  0  0  0  0  0  0  0  0
    0.7327   -1.4789    3.3557 C   0  0  0  0  0  0  0  0  0  0  0  0
    1.0063   -2.0798    4.7178 C   0  0  0  0  0  0  0  0  0  0  0  0
    0.1404   -3.6808    6.3886 C   0  0  0  0  0  0  0  0  0  0  0  0
   -0.3676   -1.8866    2.7004 N   0  0  0  0  0  0  0  0  0  0  0  0
    0.0760   -2.9835    5.1169 N   0  0  0  0  0  0  0  0  0  0  0  0
    1.9981   -1.7507    5.3746 O   0  0  0  0  0  0  0  0  0  0  0  0
    2.0332    0.7487    1.1501 H   0  0  0  0  0  0  0  0  0  0  0  0
   -0.0253   -0.0087   -0.0851 H   0  0  0  0  0  0  0  0  0  0  0  0
    2.4924   -0.2575    3.4319 H   0  0  0  0  0  0  0  0  0  0  0  0
   -1.5090   -1.7050    0.9887 H   0  0  0  0  0  0  0  0  0  0  0  0
    0.1938   -4.7650    6.2383 H   0  0  0  0  0  0  0  0  0  0  0  0
   -0.7360   -3.4523    7.0058 H   0  0  0  0  0  0  0  0  0  0  0  0
    1.0386   -3.3497    6.9110 H   0  0  0  0  0  0  0  0  0  0  0  0
   -0.6853   -3.1500    4.4674 H   0  0  0  0  0  0  0  0  0  0  0  0
  1  2  1  0  0  0  0
  1  3  2  0  0  0  0
  1 11  1  0  0  0  0
  2  4  2  0  0  0  0
  2 12  1  0  0  0  0
  3  5  1  0  0  0  0
  3 13  1  0  0  0  0
  4  8  1  0  0  0  0
  4 14  1  0  0  0  0
  5  6  1  0  0  0  0
  5  8  2  0  0  0  0
  6  9  1  0  0  0  0
  6 10  2  0  0  0  0
  7  9  1  0  0  0  0
  7 15  1  0  0  0  0
  7 16  1  0  0  0  0
  7 17  1  0  0  0  0
  9 18  1  0  0  0  0
M  END
$$$$
