19
0 1 C5H11NO2
C                     0.789520983967   -11.641117188169    -4.597351596595
C                     2.038442501326    -9.877686130564    -3.476060557933
C                    -0.243464803604   -10.386921536180    -2.690155706435
C                    -1.599730325614   -10.943214533265    -6.261850027148
C                    -0.514487970983   -12.440482768001    -4.779903404157
N                     0.801914562954   -10.624468593371    -3.679799446237
O                     1.772257945150   -11.931627803758    -5.285478538632
O                    -1.674274953062   -11.659031752372    -5.031823512360
H                     1.817690528657    -8.805623008450    -3.425521192089
H                     2.715551905045   -10.077451617697    -4.304920168275
H                     2.526373798660   -10.177149710168    -2.538790253978
H                     0.070082880379   -10.745607618183    -1.699935089389
H                    -1.173439674737   -10.870193803890    -2.978084275909
H                    -0.435817205946    -9.310616693590    -2.615140836243
H                    -2.550607320853   -10.419079053178    -6.377572616286
H                    -1.454406415286   -11.628307771147    -7.108718109480
H                    -0.780348120362   -10.211928696982    -6.255393192035
H                    -0.319199984524   -13.133601168787    -5.606334080518
H                    -0.729251128740   -13.025146071914    -3.879441497494
