20
0 1 C7H10N2O
C                     3.643418978680     4.720412196153     3.232544159551
C                     2.433573695175     4.166600648595     2.749747473984
C                     3.323966507834     5.948317662845     3.797865930578
C                     1.407566606698     5.071144691762     3.033193155760
C                    -0.035431388230     5.002978597076     2.733627328536
C                     1.291025412166     7.355463573661     4.161730815937
C                    -1.908908524576     3.545856529012     2.086772435897
N                     1.977467686803     6.160765315757     3.674043326420
N                    -0.491852521632     3.770234778478     2.334350470458
O                    -0.788312041587     5.982888698891     2.808876947031
H                     4.633346770225     4.287762126396     3.170800598710
H                     2.326490040420     3.229973681250     2.216770829151
H                     3.954597737378     6.684335915047     4.278614732090
H                     0.869063700753     7.923527969627     3.331932455807
H                     0.476209831614     7.082623021237     4.833765754171
H                     2.019965268287     7.964988347903     4.699720853914
H                    -2.482401553751     3.447337972544     3.017483514241
H                    -2.028137960506     2.635706938112     1.493461746641
H                    -2.311752963113     4.392658728782     1.529390397405
H                     0.091714088970     2.967711000260     2.524537559031
