
  -OEChem-12122420533D

 18 18  0     0  0  0  0  0  0999 V2000
    0.9312    0.1055    8.2182 C   0  0  0  0  0  0  0  0  0  0  0  0
   -0.4609    0.1783    8.2772 C   0  0  0  0  0  0  0  0  0  0  0  0
    1.5673   -0.9967    8.7947 C   0  0  0  0  0  0  0  0  0  0  0  0
   -1.1528   -0.8552    8.9207 C   0  0  0  0  0  0  0  0  0  0  0  0
    0.7822   -1.9759    9.4200 C   0  0  0  0  0  0  0  0  0  0  0  0
    1.4254   -3.1661   10.1033 C   0  0  0  0  0  0  0  0  0  0  0  0
    3.0707   -4.9792    9.8612 C   0  0  0  0  0  0  0  0  0  0  0  0
   -0.5561   -1.9083    9.4886 N   0  0  0  0  0  0  0  0  0  0  0  0
    2.4201   -3.7690    9.3721 N   0  0  0  0  0  0  0  0  0  0  0  0
    1.1108   -3.5277   11.2313 O   0  0  0  0  0  0  0  0  0  0  0  0
    1.5111    0.8907    7.7398 H   0  0  0  0  0  0  0  0  0  0  0  0
   -1.0035    1.0134    7.8432 H   0  0  0  0  0  0  0  0  0  0  0  0
    2.6497   -1.0846    8.7884 H   0  0  0  0  0  0  0  0  0  0  0  0
   -2.2399   -0.8320    8.9844 H   0  0  0  0  0  0  0  0  0  0  0  0
    3.9911   -5.1439    9.2958 H   0  0  0  0  0  0  0  0  0  0  0  0
    2.4235   -5.8596    9.7674 H   0  0  0  0  0  0  0  0  0  0  0  0
    3.3145   -4.8481   10.9165 H   0  0  0  0  0  0  0  0  0  0  0  0
    2.4454   -3.5837    8.3778 H   0  0  0  0  0  0  0  0  0  0  0  0
  1  2  1  0  0  0  0
  1  3  2  0  0  0  0
  1 11  1  0  0  0  0
  2  4  2  0  0  0  0
  2 12  1  0  0  0  0
  3  5  1  0  0  0  0
  3 13  1  0  0  0  0
  4  8  1  0  0  0  0
  4 14  1  0  0  0  0
  5  6  1  0  0  0  0
  5  8  2  0  0  0  0
  6  9  1  0  0  0  0
  6 10  2  0  0  0  0
  7  9  1  0  0  0  0
  7 15  1  0  0  0  0
  7 16  1  0  0  0  0
  7 17  1  0  0  0  0
  9 18  1  0  0  0  0
M  END
$$$$
