
  -OEChem-12102412493D

 19 18  0     0  0  0  0  0  0999 V2000
   -1.7852   -1.4261    1.1862 C   0  0  0  0  0  0  0  0  0  0  0  0
    0.2041   -1.1317   -0.1977 C   0  0  0  0  0  0  0  0  0  0  0  0
   -0.4487   -3.4181    0.4727 C   0  0  0  0  0  0  0  0  0  0  0  0
   -4.7131   -2.5647    3.1168 C   0  0  0  0  0  0  0  0  0  0  0  0
   -2.7197   -2.4105    1.9043 C   0  0  0  0  0  0  0  0  0  0  0  0
   -0.6664   -1.9842    0.6048 N   0  0  0  0  0  0  0  0  0  0  0  0
   -2.0213   -0.2242    1.1541 O   0  0  0  0  0  0  0  0  0  0  0  0
   -3.8079   -1.7067    2.4434 O   0  0  0  0  0  0  0  0  0  0  0  0
    1.2515   -1.3099    0.0705 H   0  0  0  0  0  0  0  0  0  0  0  0
   -0.0500   -0.0907   -0.0049 H   0  0  0  0  0  0  0  0  0  0  0  0
    0.0772   -1.3372   -1.2694 H   0  0  0  0  0  0  0  0  0  0  0  0
   -0.8824   -3.8190   -0.4551 H   0  0  0  0  0  0  0  0  0  0  0  0
   -0.8646   -3.9677    1.3174 H   0  0  0  0  0  0  0  0  0  0  0  0
    0.6276   -3.6149    0.4548 H   0  0  0  0  0  0  0  0  0  0  0  0
   -5.5203   -1.9363    3.4990 H   0  0  0  0  0  0  0  0  0  0  0  0
   -4.2306   -3.0828    3.9605 H   0  0  0  0  0  0  0  0  0  0  0  0
   -5.1370   -3.3213    2.4380 H   0  0  0  0  0  0  0  0  0  0  0  0
   -3.0651   -3.1785    1.1911 H   0  0  0  0  0  0  0  0  0  0  0  0
   -2.1616   -2.9352    2.6989 H   0  0  0  0  0  0  0  0  0  0  0  0
  1  5  1  0  0  0  0
  1  6  1  0  0  0  0
  1  7  2  0  0  0  0
  2  6  1  0  0  0  0
  2  9  1  0  0  0  0
  2 10  1  0  0  0  0
  2 11  1  0  0  0  0
  3  6  1  0  0  0  0
  3 12  1  0  0  0  0
  3 13  1  0  0  0  0
  3 14  1  0  0  0  0
  4  8  1  0  0  0  0
  4 15  1  0  0  0  0
  4 16  1  0  0  0  0
  4 17  1  0  0  0  0
  5  8  1  0  0  0  0
  5 18  1  0  0  0  0
  5 19  1  0  0  0  0
M  END
$$$$
