21
0 1 C8H9NO3
C                    -5.338509074989    33.349639411230    15.233704128965
C                    -6.428668618346    33.389840136074    14.311578125348
C                    -5.603412403178    33.609978289638    16.537428476536
C                    -7.702933030295    33.647471119443    14.734074490955
C                    -7.962468453652    33.970005587158    16.131115096170
C                    -8.798211939824    33.779057367128    13.702648283876
C                   -11.085189545615    33.331277739911    13.006214778369
C                   -10.185525288929    32.124558491402    14.966021355686
N                    -9.960831057167    33.097170980185    13.904907238150
O                    -9.016393958078    34.293794469450    16.635737050195
O                    -8.589575548186    34.481953634532    12.707497698473
O                    -6.838109970496    33.904443467689    16.986714036259
H                    -4.326201130346    33.126527990840    14.917997153249
H                    -6.255323245392    33.222828442820    13.251832745834
H                    -4.868290635380    33.612969913622    17.336128414938
H                   -11.300844615685    32.433464899656    12.413558384984
H                   -10.838188293046    34.150727558135    12.333554141002
H                   -11.976482631586    33.588271609793    13.590227813450
H                   -10.782189681091    32.549450579828    15.779370977779
H                    -9.238989562982    31.771714689849    15.375550620046
H                   -10.710548252116    31.259715492206    14.545417666457
