20
0 1 C7H10N2O
C                    10.249479461108     5.697700653523    -5.385958776187
C                    11.200744110405     5.508864062234    -4.353157338081
C                     9.343715458092     4.651609305486    -5.297557558810
C                    10.864247037399     4.345331881365    -3.669945827901
C                    11.631373479940     3.779582905576    -2.539474093812
C                     8.913893866985     2.687487975947    -3.828714379576
C                    12.376027216290     1.789697477554    -1.314718898432
N                     9.714196407986     3.824926904817    -4.263874813102
N                    11.518522687898     2.418421224342    -2.315607145951
O                    12.342075375790     4.491859770391    -1.827645955396
H                    10.216464793449     6.503153877403    -6.108026641799
H                    12.054343527944     6.127060548097    -4.110411167713
H                     8.452609616185     4.441866637138    -5.874850233819
H                     9.297102343729     1.741890841035    -4.231337066403
H                     8.898016206410     2.627698534250    -2.739888008240
H                     7.892037353501     2.819464274861    -4.189117742171
H                    13.431412387258     1.787235485873    -1.614072721390
H                    12.039659860493     0.761746197297    -1.157545826631
H                    12.293628635933     2.341118975073    -0.377227139106
H                    11.270643869010     1.848530431442    -3.113686068437
