
  -OEChem-12122420533D

 16 16  0     0  0  0  0  0  0999 V2000
    1.5750   -0.9189    1.7207 C   0  0  0  0  0  0  0  0  0  0  0  0
    1.4887   -0.8915   -0.8539 C   0  0  0  0  0  0  0  0  0  0  0  0
    2.7494   -0.1855   -0.4518 C   0  0  0  0  0  0  0  0  0  0  0  0
    1.5292   -0.1171    0.4558 C   0  0  0  0  0  0  0  0  0  0  0  0
    0.8606   -0.9845    4.0968 C   0  0  0  0  0  0  0  0  0  0  0  0
    0.9212   -0.3567    2.7855 N   0  0  0  0  0  0  0  0  0  0  0  0
    2.1583   -2.0035    1.7915 O   0  0  0  0  0  0  0  0  0  0  0  0
    0.8880   -0.4738   -1.6562 H   0  0  0  0  0  0  0  0  0  0  0  0
    1.4727   -1.9723   -0.7608 H   0  0  0  0  0  0  0  0  0  0  0  0
    3.5696   -0.7980   -0.0923 H   0  0  0  0  0  0  0  0  0  0  0  0
    3.0283    0.7251   -0.9733 H   0  0  0  0  0  0  0  0  0  0  0  0
    0.9908    0.8270    0.4872 H   0  0  0  0  0  0  0  0  0  0  0  0
   -0.1774   -1.1611    4.4003 H   0  0  0  0  0  0  0  0  0  0  0  0
    1.3538   -0.3657    4.8553 H   0  0  0  0  0  0  0  0  0  0  0  0
    1.3789   -1.9413    4.0290 H   0  0  0  0  0  0  0  0  0  0  0  0
    0.4707    0.5382    2.6542 H   0  0  0  0  0  0  0  0  0  0  0  0
  1  4  1  0  0  0  0
  1  6  1  0  0  0  0
  1  7  2  0  0  0  0
  2  3  1  0  0  0  0
  2  4  1  0  0  0  0
  2  8  1  0  0  0  0
  2  9  1  0  0  0  0
  3  4  1  0  0  0  0
  3 10  1  0  0  0  0
  3 11  1  0  0  0  0
  4 12  1  0  0  0  0
  5  6  1  0  0  0  0
  5 13  1  0  0  0  0
  5 14  1  0  0  0  0
  5 15  1  0  0  0  0
  6 16  1  0  0  0  0
M  END
$$$$
