
  -OEChem-12102412493D

 22 22  0     0  0  0  0  0  0999 V2000
    2.7331   -6.3841    0.4096 C   0  0  0  0  0  0  0  0  0  0  0  0
    2.3240   -5.9328   -0.8771 C   0  0  0  0  0  0  0  0  0  0  0  0
    1.8074   -6.5889    1.3910 C   0  0  0  0  0  0  0  0  0  0  0  0
    0.9903   -5.7035   -1.1098 C   0  0  0  0  0  0  0  0  0  0  0  0
    0.3911   -6.3565    1.1733 C   0  0  0  0  0  0  0  0  0  0  0  0
    0.5462   -5.1055   -2.4252 C   0  0  0  0  0  0  0  0  0  0  0  0
   -1.3889   -5.7269   -0.4055 C   0  0  0  0  0  0  0  0  0  0  0  0
    0.7549   -5.2670   -4.8742 C   0  0  0  0  0  0  0  0  0  0  0  0
    0.0463   -5.9211   -0.1377 N   0  0  0  0  0  0  0  0  0  0  0  0
    1.0586   -5.7292   -3.5250 N   0  0  0  0  0  0  0  0  0  0  0  0
   -0.4817   -6.5226    2.0299 O   0  0  0  0  0  0  0  0  0  0  0  0
   -0.1792   -4.1143   -2.4868 O   0  0  0  0  0  0  0  0  0  0  0  0
    3.7883   -6.5577    0.6070 H   0  0  0  0  0  0  0  0  0  0  0  0
    3.0481   -5.7127   -1.6525 H   0  0  0  0  0  0  0  0  0  0  0  0
    2.0790   -6.9275    2.3851 H   0  0  0  0  0  0  0  0  0  0  0  0
   -1.9360   -6.2653    0.3654 H   0  0  0  0  0  0  0  0  0  0  0  0
   -1.6386   -6.1176   -1.3926 H   0  0  0  0  0  0  0  0  0  0  0  0
   -1.6435   -4.6667   -0.3704 H   0  0  0  0  0  0  0  0  0  0  0  0
   -0.2268   -5.6192   -5.2117 H   0  0  0  0  0  0  0  0  0  0  0  0
    1.5235   -5.6321   -5.5590 H   0  0  0  0  0  0  0  0  0  0  0  0
    0.7493   -4.1761   -4.8841 H   0  0  0  0  0  0  0  0  0  0  0  0
    1.5220   -6.6188   -3.3979 H   0  0  0  0  0  0  0  0  0  0  0  0
  1  2  1  0  0  0  0
  1  3  2  0  0  0  0
  1 13  1  0  0  0  0
  2  4  2  0  0  0  0
  2 14  1  0  0  0  0
  3  5  1  0  0  0  0
  3 15  1  0  0  0  0
  4  6  1  0  0  0  0
  4  9  1  0  0  0  0
  5  9  1  0  0  0  0
  5 11  2  0  0  0  0
  6 10  1  0  0  0  0
  6 12  2  0  0  0  0
  7  9  1  0  0  0  0
  7 16  1  0  0  0  0
  7 17  1  0  0  0  0
  7 18  1  0  0  0  0
  8 10  1  0  0  0  0
  8 19  1  0  0  0  0
  8 20  1  0  0  0  0
  8 21  1  0  0  0  0
 10 22  1  0  0  0  0
M  END
$$$$
