
  -OEChem-12122420533D

 25 25  0     0  0  0  0  0  0999 V2000
    1.7211   -5.7532    4.9808 C   0  0  0  0  0  0  0  0  0  0  0  0
    1.2385   -6.1932    3.7458 C   0  0  0  0  0  0  0  0  0  0  0  0
    1.8696   -4.3806    5.2148 C   0  0  0  0  0  0  0  0  0  0  0  0
    0.9104   -5.2641    2.7517 C   0  0  0  0  0  0  0  0  0  0  0  0
    1.5392   -3.4584    4.2206 C   0  0  0  0  0  0  0  0  0  0  0  0
    1.0584   -3.8902    2.9760 C   0  0  0  0  0  0  0  0  0  0  0  0
   -0.5011   -2.0174    2.2294 C   0  0  0  0  0  0  0  0  0  0  0  0
   -2.1773   -0.4264    1.4309 C   0  0  0  0  0  0  0  0  0  0  0  0
   -0.4495   -1.2185   -0.1456 C   0  0  0  0  0  0  0  0  0  0  0  0
    0.7149   -2.8981    1.8916 C   0  0  0  0  0  0  0  0  0  0  0  0
   -0.9605   -1.2035    1.2183 N   0  0  0  0  0  0  0  0  0  0  0  0
   -1.0150   -2.0258    3.3465 O   0  0  0  0  0  0  0  0  0  0  0  0
    1.9779   -6.4713    5.7556 H   0  0  0  0  0  0  0  0  0  0  0  0
    1.1173   -7.2564    3.5539 H   0  0  0  0  0  0  0  0  0  0  0  0
    2.2386   -4.0300    6.1754 H   0  0  0  0  0  0  0  0  0  0  0  0
    0.5337   -5.6146    1.7927 H   0  0  0  0  0  0  0  0  0  0  0  0
    1.6381   -2.3940    4.4158 H   0  0  0  0  0  0  0  0  0  0  0  0
   -1.9994    0.6286    1.1914 H   0  0  0  0  0  0  0  0  0  0  0  0
   -2.4730   -0.5171    2.4745 H   0  0  0  0  0  0  0  0  0  0  0  0
   -2.9903   -0.7966    0.7923 H   0  0  0  0  0  0  0  0  0  0  0  0
   -0.9887   -1.9358   -0.7813 H   0  0  0  0  0  0  0  0  0  0  0  0
    0.6134   -1.4569   -0.1737 H   0  0  0  0  0  0  0  0  0  0  0  0
   -0.5737   -0.2225   -0.5815 H   0  0  0  0  0  0  0  0  0  0  0  0
    0.5324   -3.4292    0.9527 H   0  0  0  0  0  0  0  0  0  0  0  0
    1.5697   -2.2348    1.7065 H   0  0  0  0  0  0  0  0  0  0  0  0
  1  2  1  0  0  0  0
  1  3  2  0  0  0  0
  1 13  1  0  0  0  0
  2  4  2  0  0  0  0
  2 14  1  0  0  0  0
  3  5  1  0  0  0  0
  3 15  1  0  0  0  0
  4  6  1  0  0  0  0
  4 16  1  0  0  0  0
  5  6  2  0  0  0  0
  5 17  1  0  0  0  0
  6 10  1  0  0  0  0
  7 10  1  0  0  0  0
  7 11  1  0  0  0  0
  7 12  2  0  0  0  0
  8 11  1  0  0  0  0
  8 18  1  0  0  0  0
  8 19  1  0  0  0  0
  8 20  1  0  0  0  0
  9 11  1  0  0  0  0
  9 21  1  0  0  0  0
  9 22  1  0  0  0  0
  9 23  1  0  0  0  0
 10 24  1  0  0  0  0
 10 25  1  0  0  0  0
M  END
$$$$
