
  -OEChem-12102412493D

 25 25  0     0  0  0  0  0  0999 V2000
    1.1277   -1.6323    5.0586 C   0  0  0  0  0  0  0  0  0  0  0  0
    0.7129   -2.7914    5.7247 C   0  0  0  0  0  0  0  0  0  0  0  0
    0.7398   -0.3816    5.5480 C   0  0  0  0  0  0  0  0  0  0  0  0
   -0.0832   -2.7002    6.8691 C   0  0  0  0  0  0  0  0  0  0  0  0
   -0.0604   -0.2939    6.6922 C   0  0  0  0  0  0  0  0  0  0  0  0
   -0.4800   -1.4485    7.3654 C   0  0  0  0  0  0  0  0  0  0  0  0
   -2.5044   -2.3561    8.5898 C   0  0  0  0  0  0  0  0  0  0  0  0
   -4.6063   -3.0960    7.6018 C   0  0  0  0  0  0  0  0  0  0  0  0
   -3.5786   -1.0164    6.7683 C   0  0  0  0  0  0  0  0  0  0  0  0
   -1.3425   -1.3602    8.6124 C   0  0  0  0  0  0  0  0  0  0  0  0
   -3.5612   -2.0890    7.7543 N   0  0  0  0  0  0  0  0  0  0  0  0
   -2.4623   -3.3682    9.2947 O   0  0  0  0  0  0  0  0  0  0  0  0
    1.7471   -1.7038    4.1683 H   0  0  0  0  0  0  0  0  0  0  0  0
    1.0117   -3.7683    5.3527 H   0  0  0  0  0  0  0  0  0  0  0  0
    1.0571    0.5255    5.0396 H   0  0  0  0  0  0  0  0  0  0  0  0
   -0.4016   -3.6032    7.3843 H   0  0  0  0  0  0  0  0  0  0  0  0
   -0.3601    0.6841    7.0642 H   0  0  0  0  0  0  0  0  0  0  0  0
   -5.5918   -2.6200    7.6538 H   0  0  0  0  0  0  0  0  0  0  0  0
   -4.5100   -3.8285    8.4011 H   0  0  0  0  0  0  0  0  0  0  0  0
   -4.5163   -3.6079    6.6339 H   0  0  0  0  0  0  0  0  0  0  0  0
   -3.1914   -1.3510    5.7967 H   0  0  0  0  0  0  0  0  0  0  0  0
   -2.9857   -0.1641    7.0945 H   0  0  0  0  0  0  0  0  0  0  0  0
   -4.6099   -0.6751    6.6327 H   0  0  0  0  0  0  0  0  0  0  0  0
   -1.6949   -0.3346    8.7568 H   0  0  0  0  0  0  0  0  0  0  0  0
   -0.7559   -1.6304    9.4940 H   0  0  0  0  0  0  0  0  0  0  0  0
  1  2  1  0  0  0  0
  1  3  2  0  0  0  0
  1 13  1  0  0  0  0
  2  4  2  0  0  0  0
  2 14  1  0  0  0  0
  3  5  1  0  0  0  0
  3 15  1  0  0  0  0
  4  6  1  0  0  0  0
  4 16  1  0  0  0  0
  5  6  2  0  0  0  0
  5 17  1  0  0  0  0
  6 10  1  0  0  0  0
  7 10  1  0  0  0  0
  7 11  1  0  0  0  0
  7 12  2  0  0  0  0
  8 11  1  0  0  0  0
  8 18  1  0  0  0  0
  8 19  1  0  0  0  0
  8 20  1  0  0  0  0
  9 11  1  0  0  0  0
  9 21  1  0  0  0  0
  9 22  1  0  0  0  0
  9 23  1  0  0  0  0
 10 24  1  0  0  0  0
 10 25  1  0  0  0  0
M  END
$$$$
