22   
torsion grid (-165,)
C        4.8343397019    1.0603231410    1.3116914074
C        5.6406253589    0.8160767372    0.2158556336
C        3.5885120133    0.0896849802   -0.1598122374
C        2.4962699719   -0.6437710281   -0.8567175470
C        5.3115417304   -0.2541834522   -2.0301940530
C        0.1774088984   -1.3388124486   -0.9940721968
C        0.7324946467    0.5360012421    0.5125043769
N        3.5674942534    0.6072063221    1.0692283520
N        4.8471040648    0.1939148405   -0.7165272112
N        1.2075327585   -0.4671067455   -0.4385591590
O        2.7919017159   -1.4214904133   -1.7799826261
H        5.1025231563    1.5306750446    2.2490480364
H        6.6822066518    1.0305343852    0.0212145662
H        6.2979081492    0.1803877216   -2.2051062245
H        4.6230725110    0.0754972735   -2.8077755612
H        5.3670801646   -1.3424601464   -2.0644836303
H       -0.4938525418   -0.7750175229   -1.6545195091
H       -0.4168682751   -1.7687417327   -0.1793913603
H        0.6486623030   -2.1358465745   -1.5659949775
H       -0.2533445581    0.8786273039    0.1805107394
H        1.4090743602    1.3846378086    0.5600892141
H        0.6415455521    0.1194933949    1.5221842375
22   
torsion grid (-150,)
C        4.8847065031    0.9937165368    1.3738843667
C        5.6410951254    0.8652370673    0.2245614507
C        3.6295266444    0.0057510873   -0.0742285393
C        2.5433715380   -0.7559327150   -0.7529887170
C        5.2480166733   -0.1450260418   -2.0465353046
C        0.1926691362   -1.3212150679   -0.9724604301
C        0.7943626224    0.6223911416    0.4246085766
N        3.6371530988    0.4636919703    1.1762971687
N        4.8374109724    0.2338578666   -0.6954203325
N        1.2459060492   -0.4593489653   -0.4463920824
O        2.8529385924   -1.6273505403   -1.5816703813
H        5.1725096048    1.4365505481    2.3187557090
H        6.6515251793    1.1652582887   -0.0158674792
H        6.1411716697    0.4272652420   -2.3053576141
H        4.4541130698    0.0796728785   -2.7584470268
H        5.4578362153   -1.2144900312   -2.0959654938
H       -0.4541280024   -0.7608038759   -1.6589614120
H       -0.4226062230   -1.7017560577   -0.1482127946
H        0.6445068966   -2.1542413617   -1.5077554588
H       -0.1201945653    1.0481291306   -0.0025229264
H        1.5478645989    1.4010923834    0.5048563057
H        0.5757689624    0.2565091066    1.4345880520
22   
torsion grid (-135,)
C        4.8875634938    0.7762285343    1.2894322824
C        5.5603470805    0.7411741901    0.0838981204
C        3.5555666519   -0.1583975562   -0.1212167875
C        2.4232078979   -0.8776601902   -0.7761313139
C        5.0166046426   -0.1726265758   -2.2051925015
C        0.0320967516   -1.1924866364   -1.0737945058
C        0.8016499165    0.7301952182    0.2709481196
N        3.6379206756    0.2255845937    1.1487915268
N        4.7021288398    0.1473445418   -0.8151726115
N        1.1557961979   -0.4152861834   -0.5619352223
O        2.6756351008   -1.8299011454   -1.5294777441
H        5.2331656271    1.1678889450    2.2374821700
H        6.5419323303    1.0855680743   -0.2104094741
H        5.8423748532    0.4638326150   -2.5291812701
H        4.1489888285    0.0140845965   -2.8384471962
H        5.2922631484   -1.2243972975   -2.3025619974
H       -0.5723918752   -0.5804474075   -1.7538998730
H       -0.6055812507   -1.5245582746   -0.2450935053
H        0.4128451472   -2.0592360233   -1.6110406002
H       -0.0251539466    1.2653523539   -0.2086693171
H        1.6456098000    1.4056066725    0.3844948326
H        0.4830744509    0.4121051881    1.2707294558
22   
torsion grid (-120,)
C        4.9377098609    0.6988508667    1.3396314826
C        5.5425002563    0.7812445575    0.1023837674
C        3.6046010696   -0.2637797316   -0.0473244238
C        2.4742861619   -1.0105594483   -0.6843722078
C        4.9392013628   -0.0815526324   -2.1969968854
C        0.0881342634   -1.2171574600   -1.1092076850
C        0.8968803457    0.7456544002    0.1542281054
N        3.7235933177    0.0596839714    1.2335560480
N        4.6772180661    0.1725086222   -0.7844066718
N        1.2264917756   -0.4601831285   -0.5991874935
O        2.7190950493   -2.0395063813   -1.3275381746
H        5.3040791993    1.0667612644    2.2893594969
H        6.4784514065    1.2133634288   -0.2231883152
H        5.5820790762    0.7105644741   -2.5864358471
H        4.0013656326   -0.0863596200   -2.7527206574
H        5.4231734728   -1.0522961418   -2.3299314714
H       -0.4707702817   -0.6124939931   -1.8329381569
H       -0.5865238383   -1.4892100360   -0.2877484059
H        0.4512069389   -2.1211665107   -1.5951078787
H        0.1589414234    1.3236932471   -0.4126479440
H        1.7812769195    1.3576529935    0.3141510361
H        0.4713178478    0.4966865980    1.1338913254
22   
torsion grid (-105,)
C        4.9667251819    0.5196484121    1.4293169231
C        5.4899984050    0.6884059828    0.1655752100
C        3.6065684446   -0.4604536492    0.0841883106
C        2.4612219831   -1.2264315499   -0.5134048407
C        4.7870080972   -0.1179772916   -2.1296037545
C        0.0943239698   -1.3039332726   -1.0776179275
C        0.9839933077    0.7106391093    0.0461181167
N        3.7841797956   -0.1871115107    1.3670137891
N        4.6030467308    0.0684376208   -0.6960006759
N        1.2573840564   -0.5811637018   -0.5746838104
O        2.6594174386   -2.3452283282   -0.9979297240
H        5.3684752398    0.8684629157    2.3719053526
H        6.3814289239    1.1824846420   -0.1949902714
H        5.2128821217    0.7901006292   -2.5625221491
H        3.8228582311   -0.3161197023   -2.5986387212
H        5.4490028242   -0.9655301402   -2.3279086597
H       -0.4136991651   -0.7053366743   -1.8422548403
H       -0.6143688945   -1.5051184470   -0.2642354379
H        0.4231032262   -2.2476007685   -1.5099080194
H        0.3828998131    1.3185442946   -0.6391779657
H        1.9096040336    1.2370949470    0.2683770327
H        0.4269529640    0.5857630032    0.9829268992
22   
torsion grid (-90,)
C        5.0504665706    0.5158812578    1.5082785769
C        5.4648783469    0.7610579762    0.2177645346
C        3.6363431560   -0.4773859705    0.2327531457
C        2.4756304731   -1.2732937428   -0.3003002830
C        4.6142445915    0.0109138460   -2.0490687405
C        0.1450674182   -1.2869974587   -1.0121614159
C        1.0883560814    0.7875229064   -0.0519166554
N        3.9020828595   -0.2499188712    1.5073818438
N        4.5408403780    0.1320957501   -0.5995746501
N        1.3192665157   -0.5738427626   -0.5217038793
O        2.6163887166   -2.4630511635   -0.5880209600
H        5.5070545167    0.8478957396    2.4317296407
H        6.3078415198    1.3026345871   -0.1883096050
H        4.8972821190    0.9717705683   -2.4856839458
H        3.6367169245   -0.2771646342   -2.4381356748
H        5.3439500457   -0.7506685659   -2.3393740513
H       -0.3237872526   -0.7142038798   -1.8198899434
H       -0.5898413508   -1.4239691059   -0.2085131728
H        0.4525040845   -2.2638123717   -1.3824844595
H        0.6314791622    1.3803067471   -0.8524697304
H        2.0236213122    1.2573449713    0.2465990357
H        0.4118694132    0.7905104822    0.8121235453
22   
torsion grid (-75,)
C        5.1403990046    0.4244466802    1.4972689974
C        5.4489796621    0.7674966976    0.1992950328
C        3.6592574394   -0.5280242608    0.2658299070
C        2.4808152932   -1.3291586634   -0.2176022253
C        4.4555094044    0.1431624490   -2.0442800518
C        0.2083906630   -1.3141545527   -1.0945191015
C        1.1733536310    0.7976079763   -0.2449668044
N        4.0205799830   -0.3803822473    1.5284639887
N        4.4833453269    0.1642660785   -0.5883589879
N        1.3827965418   -0.6006808633   -0.6043191525
O        2.5492449553   -2.5530425055   -0.3177683645
H        5.6552316236    0.7114009869    2.4050992579
H        6.2489470914    1.3540970761   -0.2306700343
H        4.6726699679    1.1412776285   -2.4325326459
H        3.4621384468   -0.1552690235   -2.3820998669
H        5.1897761439   -0.5662470112   -2.4379678251
H       -0.2453266714   -0.7485351404   -1.9152111795
H       -0.5375425289   -1.4372564599   -0.2984955082
H        0.5105473526   -2.2997459967   -1.4459801261
H        0.8769387047    1.3739647805   -1.1291275663
H        2.0820254632    1.2302415042    0.1703283380
H        0.3784362827    0.8848511158    0.5068242893
22   
torsion grid (-60,)
C        5.1796105226    0.2454438947    1.4893574489
C        5.4115400834    0.6674391191    0.1977650915
C        3.6066246115   -0.6075234369    0.2967103395
C        2.3792467815   -1.3610551320   -0.1297537176
C        4.2915140000    0.2082674176   -2.0156014569
C        0.1768772129   -1.3084036188   -1.1529492616
C        1.2001373641    0.8200548375   -0.4285851264
N        4.0557472906   -0.5475456980    1.5396479268
N        4.3899963555    0.1303303144   -0.5637173642
N        1.3696385610   -0.6067033551   -0.6877033942
O        2.3239460326   -2.5849112717   -0.0390551726
H        5.7548189594    0.4687299384    2.3787437457
H        6.1974233395    1.2637078457   -0.2450900233
H        4.3772202819    1.2488050354   -2.3402939624
H        3.3239022831   -0.1802732235   -2.3326796262
H        5.0823521858   -0.3825554299   -2.4876013665
H       -0.2809896382   -0.7355963554   -1.9653317915
H       -0.5574687180   -1.4262538179   -0.3452016837
H        0.4567099532   -2.2988633768   -1.5101323482
H        0.9972010840    1.3553780818   -1.3634307831
H        2.0944064161    1.2394366938    0.0297801513
H        0.3570344619    0.9871912896    0.2545201888
22   
torsion grid (-45,)
C        5.3874839361    0.1776818639    1.3406603301
C        5.4901017956    0.6708223660    0.0564647271
C        3.7244275974   -0.6500520123    0.2535322626
C        2.4664485553   -1.4015533550   -0.0599372145
C        4.2003115248    0.3098033479   -2.0704164477
C        0.2985192260   -1.4658382894   -1.1431682517
C        1.2796254910    0.7265267872   -0.6011877992
N        4.2909099125   -0.6408369468    1.4510777008
N        4.4153440762    0.1502206570   -0.6364696261
N        1.4884354634   -0.7119372551   -0.7555825426
O        2.3584236689   -2.5910959351    0.2237458352
H        6.0408288912    0.3665011458    2.1829065949
H        6.2222747766    1.3046968753   -0.4249093980
H        3.9472629937    1.3477660105   -2.3076650331
H        3.3805946940   -0.3333742661   -2.3867430001
H        5.1042582702    0.0279661954   -2.6169539044
H       -0.1710778275   -0.9703015617   -1.9984367633
H       -0.4283518228   -1.5213545035   -0.3218739065
H        0.5842875884   -2.4811561045   -1.4158439655
H        1.0909270095    1.1923826901   -1.5751745987
H        2.1489916010    1.1995566714   -0.1470274218
H        0.4133555968    0.9190310635    0.0457678808
22   
torsion grid (-30,)
C        5.4161453539    0.0567551343    1.3367786459
C        5.4723873609    0.6254983538    0.0803013506
C        3.6960911367   -0.6847325087    0.2711763431
C        2.3893419428   -1.3664232856    0.0170300551
C        4.1439546228    0.3717442601   -2.0264706246
C        0.2853431050   -1.4786571099   -1.1672413697
C        1.2561498511    0.7272043245   -0.7064687748
N        4.3131955969   -0.7476689937    1.4444379291
N        4.3619919588    0.1669964160   -0.5963486747
N        1.4823830731   -0.7158776409   -0.8143447084
O        2.1833152203   -2.4974744904    0.4446652502
H        6.1059549633    0.1883282108    2.1607734035
H        6.1979918928    1.2718797865   -0.3947020313
H        3.8904556138    1.4163976330   -2.2306126243
H        3.3256569924   -0.2629565859   -2.3613039910
H        5.0494597051    0.1091032120   -2.5796934839
H       -0.1800358716   -1.0125553143   -2.0408511052
H       -0.4413943476   -1.5003044108   -0.3442403275
H        0.5625366852   -2.5057725605   -1.4030636532
H        1.0733900927    1.1596077238   -1.6963575611
H        2.1151039656    1.2244485854   -0.2582271704
H        0.3810421895    0.9315267260   -0.0744932232
22   
torsion grid (-15,)
C        5.4998524943   -0.0309075369    1.3182184961
C        5.5041294050    0.6131560944    0.0970482006
C        3.7297572056   -0.7033710032    0.2836930405
C        2.3802785183   -1.3203250341    0.1020700500
C        4.1346083055    0.4509513145   -1.9816039484
C        0.3243685008   -1.5256733568   -1.1437352597
C        1.2555789694    0.7041436284   -0.7764349452
N        4.3960748554   -0.8303397882    1.4265056057
N        4.3623979700    0.2048452604   -0.5571214031
N        1.5208454562   -0.7388020739   -0.8371068005
O        2.1066522011   -2.3773907613    0.6583937819
H        6.2261454116    0.0471499276    2.1173957368
H        6.2119676481    1.2856780400   -0.3686890184
H        3.8680510391    1.4978961306   -2.1536812382
H        3.3244451924   -0.1853108530   -2.3318043935
H        5.0421650026    0.2167301889   -2.5439274598
H       -0.1399381564   -1.1100936600   -2.0429596806
H       -0.4034923792   -1.5047983319   -0.3218493845
H        0.6042553496   -2.5635468637   -1.3235657365
H        1.0582369498    1.0964825289   -1.7796786191
H        2.1022403343    1.2395829795   -0.3490914167
H        0.3777622591    0.9075086583   -0.1473989465
22   
torsion grid (0,)
C        5.0468500571    2.2018609659   -0.3239040473
C        5.4385528549    0.8911981149   -0.1358925173
C        3.3541563973    0.9857709727   -0.8922552840
C        1.9144229806    0.6796077713   -1.1558761196
C        4.4788921631   -1.3278697729   -0.7172339962
C        0.1776785618   -0.9380673193   -1.5774558764
C        1.5920567329   -1.2138793448    0.3866899550
N        3.7580224338    2.2477909495   -0.7712926974
N        4.3542408938    0.1115867888   -0.4706730030
N        1.4773236998   -0.6451369826   -0.9656471677
O        1.1991379071    1.5186634892   -1.6874327335
H        5.6218198032    3.1027975608   -0.1501288395
H        6.3776163239    0.4493365356    0.1696809267
H        4.5404054631   -1.8781746697    0.2259932137
H        5.3821767438   -1.5201989180   -1.3016046759
H        3.6131048891   -1.6720828848   -1.2786363741
H       -0.6495573798   -0.4417788954   -1.0532114014
H        0.0229502728   -2.0207317665   -1.5473357445
H        0.1757152985   -0.5997205125   -2.6137750469
H        1.6965047042   -2.3025702896    0.3337233008
H        0.6966532678   -0.9805060299    0.9799518649
H        2.4531691866   -0.8023869069    0.9118785191
22   
torsion grid (15,)
C        5.0127750294    2.1809962440   -0.1919049937
C        5.4247210834    0.8668018072   -0.0955272342
C        3.3519297677    0.9844092092   -0.8740619069
C        1.9430077577    0.6533109501   -1.2482604433
C        4.4788401767   -1.3293473257   -0.8061220831
C        0.1823831059   -0.9702040979   -1.5403551298
C        1.6111635281   -1.1321300860    0.4361270976
N        3.7301724775    2.2405436507   -0.6614934692
N        4.3581066127    0.0982024684   -0.5075789648
N        1.4710508014   -0.6266089274   -0.9353536139
O        1.2869014712    1.4338131302   -1.9280358368
H        5.5690334503    3.0756695133    0.0579208217
H        6.3658958001    0.4183134104    0.1930556366
H        4.5512959883   -1.9111068281    0.1174924647
H        5.3739719040   -1.5035492884   -1.4087179170
H        3.6041674723   -1.6554611640   -1.3650780959
H       -0.6514351704   -0.4404947146   -1.0609103319
H        0.0289270277   -2.0482476162   -1.4346977716
H        0.1910656128   -0.7043907118   -2.5972976274
H        1.7219270706   -2.2216518919    0.4297643714
H        0.7230975548   -0.8788915856    1.0317947636
H        2.4779174659   -0.6928449064    0.9279799952
22   
torsion grid (30,)
C        4.9530258264    2.1437738184   -0.0895377049
C        5.4000476720    0.8379324281   -0.0848355050
C        3.3261914772    0.9559737236   -0.8554765153
C        1.9530492339    0.5929467691   -1.3244697406
C        4.4735779592   -1.3413117631   -0.8975673448
C        0.1617877988   -1.0204443252   -1.4983762055
C        1.6045783886   -1.0785687161    0.4852876499
N        3.6696636881    2.2041960767   -0.5639576583
N        4.3533832140    0.0744087083   -0.5569753555
N        1.4362540977   -0.6269359959   -0.8980259826
O        1.3641260003    1.3011497370   -2.1345183714
H        5.4848923794    3.0328795667    0.2246418592
H        6.3519704224    0.3948553234    0.1748986775
H        4.5638283811   -1.9479561308    0.0085709404
H        5.3573705936   -1.4975724382   -1.5216414286
H        3.5890582617   -1.6565652923   -1.4478267376
H       -0.6824434680   -0.4750080968   -1.0560056105
H        0.0167366898   -2.0927706711   -1.3368360828
H        0.1803872929   -0.8093340511   -2.5672333450
H        1.7385168344   -2.1654026510    0.5178766633
H        0.7185346291   -0.8226668033    1.0822225577
H        2.4680541160   -0.6034164132    0.9485194477
22   
torsion grid (45,)
C        4.9607213807    2.0995723234    0.0258534130
C        5.4351621201    0.8069266441   -0.0569242011
C        3.3673704338    0.9377917662   -0.8368348457
C        2.0319070208    0.5589281358   -1.4012110779
C        4.5181117035   -1.3433773058   -0.9803519546
C        0.1746134615   -0.9971746516   -1.4812356423
C        1.6072666777   -0.9754057829    0.5212157768
N        3.6792513049    2.1694625462   -0.4615731130
N        4.4076448230    0.0599581540   -0.5977860947
N        1.4327341167   -0.5714038643   -0.8726780926
O        1.5460438219    1.1848794600   -2.3389094337
H        5.4709732618    2.9753419010    0.4060661066
H        6.3914549588    0.3641774970    0.1861244153
H        4.6130385543   -1.9770031759   -0.0931127838
H        5.3936212593   -1.4882876430   -1.6188972149
H        3.6261587014   -1.6393447228   -1.5303509658
H       -0.6794519869   -0.4420768063   -1.0708867987
H        0.0302684179   -2.0641153600   -1.2853709267
H        0.2124732387   -0.8207741057   -2.5556361671
H        1.7414760992   -2.0609511131    0.5909103470
H        0.7235621512   -0.6994583410    1.1119386363
H        2.4728400212   -0.4843967219    0.9633787755
22   
torsion grid (60,)
C        4.7567358586    2.1529761784    0.1832732138
C        5.3344607870    0.9135134068    0.0099204799
C        3.2602587643    0.9295880748   -0.7585424900
C        1.9741751841    0.4586793286   -1.3753483513
C        4.5654600302   -1.2346134287   -1.0663191527
C        0.1057821858   -1.0924005723   -1.3215727123
C        1.5260917084   -0.8749306042    0.6878957872
N        3.4674781200    2.1525302619   -0.2985441449
N        4.3648570777    0.1251179559   -0.5818734925
N        1.3373947828   -0.5788651518   -0.7291996031
O        1.5646645202    0.9382129595   -2.4296232402
H        5.1945308858    3.0379208898    0.6270392808
H        6.3238344405    0.5331288999    0.2237410038
H        4.9968170186   -1.8531968386   -0.2746319762
H        5.2341487590   -1.2402366139   -1.9324097510
H        3.6050518809   -1.6582109646   -1.3594811844
H       -0.7700540205   -0.5296245297   -0.9725707371
H       -0.0150721206   -2.1431888871   -1.0406310652
H        0.1618277464   -1.0030861008   -2.4059134235
H        1.6569994081   -1.9529759058    0.8374089713
H        0.6512811587   -0.5502605782    1.2664361194
H        2.4005890223   -0.3570193539    1.0786967452
22   
torsion grid (75,)
C        4.7691188329    2.0995717466    0.3794367611
C        5.3941904105    0.9040779972    0.1005943335
C        3.3292113222    0.9139590163   -0.6873482475
C        2.0797260771    0.4301799342   -1.3722120503
C        4.6903571922   -1.1678133891   -1.1731720492
C        0.1036479030   -0.9912042680   -1.2741300280
C        1.4598575603   -0.6909569768    0.7706016078
N        3.4807820902    2.0947091160   -0.1133503618
N        4.4576834813    0.1384635882   -0.5728353680
N        1.3246359075   -0.4737803740   -0.6657189651
O        1.8133358191    0.7826364682   -2.5199329299
H        5.1697496757    2.9570417571    0.9045938550
H        6.3919441567    0.5378779373    0.2988408599
H        5.2440736575   -1.8016667895   -0.4761691116
H        5.2565409350   -1.0733706031   -2.1047867933
H        3.7318873556   -1.6410089217   -1.3907360944
H       -0.7777895648   -0.4484876559   -0.9084249499
H       -0.0085340620   -2.0511766279   -1.0225067510
H        0.1651260762   -0.8711855642   -2.3548542257
H        1.5033859949   -1.7647377504    0.9870458506
H        0.6006846099   -0.2653191822    1.3047887881
H        2.3638163075   -0.2173190203    1.1498846059
22   
torsion grid (90,)
C        4.7113444292    2.0402888015    0.4592185231
C        5.4096672723    0.9108469939    0.0933808649
C        3.3391618223    0.8342156567   -0.6732361549
C        2.1252598182    0.2999927728   -1.3846440952
C        4.8223251461   -1.1105376185   -1.3183913783
C        0.0606163023   -0.9864428425   -1.2464580975
C        1.3419706469   -0.5583847661    0.8250893924
N        3.4164848418    1.9781118710   -0.0154351679
N        4.5163327367    0.1316876593   -0.6225794599
N        1.2714252445   -0.4577043566   -0.6282234576
O        1.9826174392    0.4817223290   -2.5949238761
H        5.0618561787    2.8859342044    1.0367613828
H        6.4300896208    0.5963925700    0.2625600946
H        5.4419802510   -1.7466003232   -0.6817018684
H        5.3477678899   -0.9116124329   -2.2570624518
H        3.8940148068   -1.6373310871   -1.5436379547
H       -0.8208694635   -0.4174445650   -0.9240170770
H       -0.0745033887   -2.0339487611   -0.9553753353
H        0.1538108016   -0.9128464953   -2.3289307655
H        1.2312357964   -1.6059439251    1.1274782056
H        0.5394761530    0.0252347519    1.2937050180
H        2.2950117181   -0.1826952782    1.1926673398
22   
torsion grid (105,)
C        4.6459436294    1.9534709141    0.4717578639
C        5.4165633880    0.9084652414    0.0098457812
C        3.3321546588    0.7103673768   -0.6903130528
C        2.1446364302    0.1210207061   -1.3960648983
C        4.9449278645   -1.0627328764   -1.5076467552
C       -0.0028712838   -1.0150030023   -1.2361047294
C        1.2082450574   -0.4625983885    0.8470943324
N        3.3433643678    1.8134621972    0.0411757074
N        4.5628995428    0.1058382151   -0.7251731519
N        1.2072956977   -0.4918358369   -0.6116154425
O        2.0990966460    0.1293199299   -2.6302992774
H        4.9514909108    2.7884623710    1.0889984550
H        6.4621548175    0.6629215386    0.1332004234
H        5.6635479240   -1.6607649273   -0.9423603647
H        5.3870629650   -0.7618918642   -2.4615964660
H        4.0620512888   -1.6685756306   -1.7127096079
H       -0.8746809701   -0.4142345231   -0.9473553742
H       -0.1703670526   -2.0491614100   -0.9144201361
H        0.1140283596   -0.9823105453   -2.3181070066
H        0.9395279225   -1.4548395951    1.2261739412
H        0.4802086547    0.2654307381    1.2258671930
H        2.1902555910   -0.1912805117    1.2284005178
22   
torsion grid (120,)
C        4.6821642272    1.8217749308    0.5858731409
C        5.5036106473    0.8508731022    0.0511889521
C        3.4125283003    0.5333636112   -0.5784244319
C        2.2558466724   -0.0983015145   -1.2885546050
C        5.1179746335   -1.0878575965   -1.5262384757
C        0.0293558624   -1.0730506413   -1.1913024701
C        1.1098055177   -0.3835458115    0.9206923783
N        3.3786881003    1.6064712291    0.2004880364
N        4.6815700512    0.0211496997   -0.6846871370
N        1.2199285335   -0.5566125145   -0.5243822198
O        2.3158835362   -0.2568413135   -2.5147482950
H        4.9549853696    2.6511390909    1.2256324130
H        6.5667608382    0.6718229925    0.1310723373
H        6.0177026405   -1.5293518052   -1.0926593188
H        5.3259813043   -0.7415121597   -2.5416345032
H        4.3359422052   -1.8457501987   -1.5752946161
H       -0.8344431288   -0.4306598239   -0.9788197644
H       -0.1926993469   -2.0848860524   -0.8326029468
H        0.2065392095   -1.0993972369   -2.2651134597
H        0.6817260571   -1.2948464215    1.3523226073
H        0.4586475991    0.4630712824    1.1697841032
H        2.0853986346   -0.2036279093    1.3658224101
22   
torsion grid (135,)
C        4.6660456746    1.7358903003    0.6452245244
C        5.5125735705    0.8525736291    0.0046627180
C        3.4096479146    0.4175432936   -0.5041725823
C        2.2621216240   -0.2402693936   -1.1962338090
C        5.1666815856   -1.0423969243   -1.6263130196
C       -0.0229125636   -1.0654699767   -1.1442296965
C        0.9939211220   -0.2994768250    0.9715531346
N        3.3604299413    1.4498097816    0.3319772383
N        4.7036025190    0.0091142308   -0.7244737225
N        1.1591797782   -0.5582261928   -0.4556750308
O        2.3712047432   -0.5217842031   -2.3990918160
H        4.9263965390    2.5496901944    1.3097426329
H        6.5881680302    0.7439342197    0.0099179663
H        6.1832286265   -1.3206295121   -1.3414203397
H        5.1483117121   -0.6944189599   -2.6608488471
H        4.5193352617   -1.9160824433   -1.5472932516
H       -0.8700336459   -0.3855190604   -0.9902710163
H       -0.2941660396   -2.0530517832   -0.7522541767
H        0.1911240604   -1.1464030326   -2.2084169900
H        0.4546669217   -1.1426961885    1.4167692266
H        0.4195150343    0.6180765746    1.1458810998
H        1.9576165783   -0.1929534895    1.4627582029
22   
torsion grid (150,)
C        4.7099252606    1.7380049507    0.8780587824
C        5.5986971351    0.9601359987    0.1606711237
C        3.5182793757    0.4264056360   -0.3496766761
C        2.4072587719   -0.2250595335   -1.0990712902
C        5.3644832857   -0.8432715880   -1.5790766668
C        0.0753657888   -0.8828746442   -1.2499191069
C        0.9293773564   -0.1255098540    0.9384645780
N        3.4227001234    1.3948994331    0.5594420886
N        4.8346619020    0.1263994379   -0.6216090230
N        1.2118047532   -0.4118005249   -0.4654632693
O        2.6077984083   -0.5854772687   -2.2703129592
H        4.9306771064    2.5152665765    1.5983624085
H        6.6789978641    0.9224106167    0.1431448803
H        6.4143423071   -1.0225325167   -1.3385213905
H        5.2702898797   -0.4644090371   -2.5978106859
H        4.8116676017   -1.7799985755   -1.5114829354
H       -0.7632481243   -0.1837494309   -1.1463715889
H       -0.2498497342   -1.8701531529   -0.8989142331
H        0.3663965910   -0.9540993039   -2.2962733348
H        0.2658398714   -0.9083823088    1.3217791761
H        0.4349729833    0.8457910801    1.0560464366
H        1.8427938073   -0.1112251227    1.5267379132
22   
torsion grid (165,)
C        4.6921189131    1.6450252232    0.9213813300
C        5.5855916275    0.9690607788    0.1119065865
C        3.5185871611    0.3076073471   -0.3009121071
C        2.4127522399   -0.3712020175   -1.0313041899
C        5.3908070367   -0.7724982530   -1.6843845563
C        0.0591344738   -0.9024992076   -1.2716255222
C        0.8297814692   -0.0341093660    0.9069310826
N        3.4167449113    1.2284343058    0.6585305478
N        4.8360817268    0.1228460870   -0.6681236046
N        1.1714757081   -0.4153560189   -0.4622084008
O        2.6437384576   -0.8511085279   -2.1542749433
H        4.9031901074    2.4001902609    1.6676872743
H        6.6625635778    1.0123292074    0.0280211822
H        6.4732699732   -0.8102182004   -1.5455039341
H        5.1510572528   -0.4100135728   -2.6843446910
H        4.9726780233   -1.7727717664   -1.5763591831
H       -0.7703317645   -0.1874295885   -1.2228244188
H       -0.2953277159   -1.8726466465   -0.9004648440
H        0.3863565204   -1.0166870347   -2.3032768047
H        0.0571981085   -0.7213799885    1.2676634348
H        0.4426717338    0.9902049485    0.9530456009
H        1.6959143488   -0.0944575606    1.5599114557
22   
torsion grid (180,)
C        4.7802126151    1.3046826934    1.1786024710
C        5.6339499948    0.8644994101    0.1853499750
C        3.5632122837    0.2142486230   -0.2351404758
C        2.4606938854   -0.4879317950   -0.9468972814
C        5.3900293790   -0.4670891292   -1.9199694192
C        0.1505371526   -1.2012107524   -1.1131229508
C        0.7584783643    0.3586023293    0.7185508748
N        3.5050412458    0.8957589822    0.9106537543
N        4.8608608360    0.1701459094   -0.7117762106
N        1.1902963825   -0.4215705385   -0.4452669406
O        2.7312690833   -1.1388631993   -1.9717926696
H        5.0202989028    1.8856439743    2.0598868478
H        6.6987271092    0.9838544675    0.0416966612
H        6.4574271377   -0.2427644641   -1.9735150620
H        4.8847655328   -0.0837819925   -2.8058364706
H        5.2360263485   -1.5451601806   -1.8815678757
H       -0.6148812332   -0.5375429999   -1.5337631852
H       -0.3296181980   -1.8766944764   -0.3951743008
H        0.5987201030   -1.7833683972   -1.9155202454
H       -0.3338588496    0.3547949416    0.7293469366
H        1.1106508836    1.3880397407    0.6630639772
H        1.1265874469   -0.0700287932    1.6546749919
