28   
torsion grid (-165,)
C       -1.0010015136    0.2118287430    0.5402129835
C       -2.0396302688   -0.7082084946    0.6294308741
C       -1.7699213288    1.4355262603    2.4875607184
C       -3.9210830771    0.3917740590    3.5397783537
C       -2.8362239951    0.5224997064    2.6150649218
C       -0.8489422561    1.2874536997    1.4548561276
C       -2.9575376658   -0.5476266437    1.6762135034
C       -4.6570472821   -0.7109895665    3.1426356920
C       -5.7902550226   -1.3931293037    3.7610288506
C        1.2621235917    2.2203799200    2.5028610256
C       -0.1735472850    3.6908008121    1.0145016774
C        0.3130968059    2.2569841674    1.2914868248
N       -4.0699724713   -1.2805110106    2.0216211558
O       -6.1773456608   -2.5078626290    3.4361605331
O       -6.3601084459   -0.6813981352    4.7689513807
H       -0.2746080382    0.1053761168   -0.2623571158
H       -2.1304020764   -1.5207722300   -0.0866884228
H       -1.6750217903    2.2519652716    3.1996065235
H       -4.1485600489    1.0223521708    4.3887318992
H        0.7551071930    2.5618180099    3.4120713216
H        2.1266996423    2.8733588128    2.3380677817
H        1.6276763299    1.2050615989    2.6868288635
H       -0.7347033902    4.0890808050    1.8670029132
H       -0.8306350500    3.7220366539    0.1395112598
H        0.6750801754    4.3598505160    0.8322194313
H        0.8865388375    1.9303575883    0.4154626987
H       -4.3990187748   -2.1404531889    1.6024578141
H       -7.0697830177   -1.2475309163    5.1272725872
28   
torsion grid (-150,)
C       -0.6999332311    0.0095185489    0.8813537861
C       -1.6912431478   -0.9569878856    1.0122958305
C       -1.8384014425    1.5392471203    2.3795494380
C       -4.0728031009    0.5522984347    3.3072398164
C       -2.8615010681    0.5841398070    2.5439191413
C       -0.7547129423    1.2597215005    1.5518999821
C       -2.7726712387   -0.6621969679    1.8529925266
C       -4.6811444872   -0.6639057188    3.0512514959
C       -5.8041164125   -1.3321249047    3.7081743507
C        1.0897471492    2.5923158475    2.6714498383
C       -0.1444940581    3.5574505845    0.6755408176
C        0.3645266410    2.2718493286    1.3522161073
N       -3.8895480327   -1.3993160105    2.1790938793
O       -5.9340280890   -2.5466164552    3.7764425598
O       -6.6651689316   -0.4662848465    4.3045127475
H        0.1526537151   -0.1987611213    0.2388693509
H       -1.6227365807   -1.9044372767    0.4840676193
H       -1.9038455127    2.4908706617    2.9017572104
H       -4.4643780658    1.3210228836    3.9599322099
H        0.4161906663    3.0800372857    3.3846879592
H        1.9339952919    3.2684543133    2.4951717412
H        1.4711733121    1.6811058024    3.1431880992
H       -0.8676282271    4.0786049246    1.3125742260
H       -0.6391167840    3.3333504485   -0.2749800886
H        0.6844852788    4.2467049864    0.4785784599
H        1.0982075738    1.8142818228    0.6774693716
H       -4.0604121975   -2.3743866453    1.9705114780
H       -7.3201033154   -1.0193271186    4.7716122119
28   
torsion grid (-135,)
C       -0.7009583551    0.0218578546    0.8679729466
C       -1.6965814695   -0.9419152149    0.9896989959
C       -1.8380524103    1.5448640700    2.3740585477
C       -4.0776426809    0.5582786725    3.2905585942
C       -2.8640310433    0.5919742426    2.5294374371
C       -0.7529025050    1.2670110213    1.5469996842
C       -2.7770977958   -0.6493663561    1.8316105644
C       -4.6936232321   -0.6508100150    3.0216017884
C       -5.7700664104   -1.3410635306    3.7408607068
C        1.0919665954    2.5866592637    2.6811108844
C       -0.1318435952    3.5678787982    0.6865587616
C        0.3703740798    2.2765890280    1.3574257510
N       -3.8971164985   -1.3860438420    2.1525627715
O       -5.7641536940   -2.5341689067    4.0049162987
O       -6.7379464907   -0.4953753271    4.1813817929
H        0.1526383770   -0.1854658660    0.2265568637
H       -1.6304010244   -1.8859859719    0.4550922609
H       -1.9016304677    2.4933918017    2.9021076512
H       -4.4660276751    1.3233787246    3.9495674052
H        0.4176305142    3.0724934193    3.3949007298
H        1.9392436365    3.2608252035    2.5119035732
H        1.4684358742    1.6712668989    3.1487164576
H       -0.8556362445    4.0876229542    1.3240041536
H       -0.6237000911    3.3510207887   -0.2670752790
H        0.7001287836    4.2555421704    0.4967238788
H        1.1049246173    1.8205154946    0.6826089804
H       -4.0521444149   -2.3656565520    1.9546578968
H       -7.3360935659   -1.0350137998    4.7333322133
28   
torsion grid (-120,)
C       -0.7151781040    0.0216151163    0.8549782265
C       -1.7152371970   -0.9386517116    0.9729577099
C       -1.8409945890    1.5390799257    2.3743092067
C       -4.0827726567    0.5567262019    3.2907137982
C       -2.8696511667    0.5892889486    2.5266623343
C       -0.7590146249    1.2619570867    1.5420353034
C       -2.7899383307   -0.6471174167    1.8218013926
C       -4.7088460901   -0.6439034563    3.0121562668
C       -5.7521896874   -1.3441304817    3.7827651248
C        1.0949269265    2.5666179975    2.6789868806
C       -0.1309639229    3.5660182391    0.6948305171
C        0.3678433427    2.2682167299    1.3556291578
N       -3.9141598546   -1.3808368886    2.1414141300
O       -5.6274578513   -2.4655044039    4.2472463811
O       -6.8299254270   -0.5583056635    4.0392425935
H        0.1355514827   -0.1856100862    0.2097803731
H       -1.6552633213   -1.8792366657    0.4313831154
H       -1.8992486978    2.4847896368    2.9080299643
H       -4.4646073022    1.3205317961    3.9552505431
H        0.4248325828    3.0504118654    3.3981427027
H        1.9444393774    3.2384537803    2.5115718138
H        1.4690800894    1.6466058738    3.1393250855
H       -0.8505497004    4.0846707057    1.3379058696
H       -0.6267402790    3.3574299612   -0.2586232744
H        0.7033106940    4.2514276642    0.5068284462
H        1.0983514497    1.8135959373    0.6754535629
H       -4.0627962808   -2.3609245190    1.9428552734
H       -7.3950086166   -1.0653627766    4.6542106477
28   
torsion grid (-105,)
C       -0.7231367759    0.0369779383    0.8359965579
C       -1.7261770779   -0.9205580742    0.9594320560
C       -1.8235426260    1.5398726988    2.3887236814
C       -4.0580961653    0.5560277732    3.3260631623
C       -2.8524760033    0.5925936360    2.5464756369
C       -0.7538529578    1.2685311664    1.5373638978
C       -2.7858606636   -0.6346786614    1.8274792337
C       -4.6915314269   -0.6365998270    3.0422416547
C       -5.7436586403   -1.3296088721    3.8250252841
C        1.1168822540    2.5597771039    2.6626370570
C       -0.1324997825    3.5790095733    0.7034381331
C        0.3724385000    2.2744711640    1.3460920114
N       -3.9104747527   -1.3684471712    2.1554798693
O       -5.5533300683   -2.3220956693    4.5044456392
O       -6.9268736646   -0.6648142033    3.8121245598
H        0.1170933084   -0.1664087328    0.1760133619
H       -1.6778145341   -1.8555549002    0.4069615812
H       -1.8704321158    2.4800719234    2.9332011750
H       -4.4270825114    1.3152279533    4.0031825610
H        0.4569276149    3.0381592119    3.3946741353
H        1.9654202898    3.2316943502    2.4904927781
H        1.4951217190    1.6349807678    3.1098596091
H       -0.8431535964    4.0928154766    1.3602041779
H       -0.6407065483    3.3796314953   -0.2454449273
H        0.7003809257    4.2649286789    0.5109730241
H        1.0934039200    1.8248565411    0.6525089871
H       -4.0701993030   -2.3394503402    1.9257041454
H       -7.5101572404   -1.1313822893    4.4430645308
28   
torsion grid (-90,)
C       -0.7444742135    0.0607252798    0.8374209652
C       -1.7336960592   -0.9052346420    1.0088970409
C       -1.7663285570    1.5368862129    2.4681212182
C       -3.9463968842    0.5322987265    3.5148993497
C       -2.7807880576    0.5843524653    2.6704796264
C       -0.7440587246    1.2824178721    1.5535517314
C       -2.7480035015   -0.6308186408    1.9310963668
C       -4.5678472048   -0.6674626082    3.2654309192
C       -5.7607159103   -1.2733504476    3.9280699276
C        1.1870748315    2.5600068994    2.5883463195
C       -0.1828369985    3.6127692087    0.7303768426
C        0.3644797668    2.2977257234    1.3141371826
N       -3.8532475106   -1.3764938444    2.3108030273
O       -5.7207146726   -2.0011825517    4.8993643472
O       -6.9226065598   -0.9124862482    3.3266966764
H        0.0568507955   -0.1294307194    0.1270940971
H       -1.7108767307   -1.8345301695    0.4449973750
H       -1.7849193477    2.4690986289    3.0279131504
H       -4.2856665477    1.2839482910    4.2153676158
H        0.5710419672    3.0193644864    3.3692186219
H        2.0208115891    3.2398949275    2.3788321571
H        1.5956857684    1.6281403806    2.9920909077
H       -0.8525136016    4.1109230526    1.4401317767
H       -0.7486855449    3.4301643925   -0.1888038973
H        0.6346248055    4.3056569264    0.5002132246
H        1.0433696714    1.8655351379    0.5688938950
H       -4.0677151135   -2.3134671473    2.0006272361
H       -7.6415314197   -1.3388440246    3.8352787440
28   
torsion grid (-75,)
C       -0.8036069365    0.0620877523    0.8352163788
C       -1.7841585575   -0.9043532862    1.0434168919
C       -1.7413527731    1.5250717176    2.5271120126
C       -3.8724621105    0.5156321227    3.6605230102
C       -2.7504937708    0.5735322630    2.7642087681
C       -0.7651966281    1.2774966847    1.5631307139
C       -2.7613609995   -0.6324322620    2.0070363958
C       -4.4942725141   -0.6959419882    3.4531362141
C       -5.8127172412   -1.1594626054    3.9537394990
C        1.2275479672    2.5191307866    2.5198607752
C       -0.2275378876    3.6197638698    0.7564248785
C        0.3376389730    2.2891850242    1.2851512867
N       -3.8499396777   -1.3757692880    2.4269363377
O       -6.0629207891   -1.5071621948    5.0908504959
O       -6.7212553535   -1.2633275048    2.9413090184
H       -0.0379092837   -0.1213527173    0.0848955189
H       -1.7889714089   -1.8283004654    0.4705068678
H       -1.7279740458    2.4486939365    3.1010529535
H       -4.1833664867    1.2638546612    4.3777620473
H        0.6567165657    2.9672652205    3.3405817415
H        2.0552536291    3.1965595529    2.2807677645
H        1.6483550052    1.5761592620    2.8832837170
H       -0.8552081991    4.1091851972    1.5092999068
H       -0.8413619048    3.4602087200   -0.1358573525
H        0.5832217043    4.3105195816    0.4981190978
H        0.9730467022    1.8665932467    0.4972978621
H       -4.1406226572   -2.2668431398    2.0508180375
H       -7.5323001904   -1.6323879456    3.3436135090
28   
torsion grid (-60,)
C       -0.8084519673    0.0997384435    0.8461472097
C       -1.7929683776   -0.8564539946    1.0763129311
C       -1.7082110023    1.5876519134    2.5372025708
C       -3.8328466697    0.6090384938    3.7041350737
C       -2.7234092974    0.6468704560    2.7962230287
C       -0.7486331220    1.3223318492    1.5629047548
C       -2.7557916680   -0.5675486244    2.0508901991
C       -4.4701558081   -0.6024414943    3.5213749234
C       -5.7970492409   -1.0163897197    4.0153416238
C        1.2829411456    2.5279653449    2.4791297824
C       -0.1932100280    3.6605614839    0.7537034449
C        0.3623986928    2.3186528400    1.2631899745
N       -3.8412277281   -1.2969635421    2.4934612540
O       -6.1430845229   -1.0740230126    5.1799801456
O       -6.5914302318   -1.4658358165    2.9955636832
H       -0.0548900092   -0.0964404153    0.0867651610
H       -1.8131525931   -1.7855348590    0.5122690776
H       -1.6787397839    2.5156622506    3.1033170205
H       -4.1301921333    1.3662591010    4.4176996948
H        0.7364029495    2.9788567133    3.3147582405
H        2.1149236009    3.1948688600    2.2258434459
H        1.6978855687    1.5767885738    2.8276086118
H       -0.7943764221    4.1574300050    1.5230974805
H       -0.8303978913    3.5154005580   -0.1245347016
H        0.6227226447    4.3387702685    0.4792256339
H        0.9731477564    1.8901227219    0.4592329697
H       -4.1779860730   -2.1641244994    2.0998263582
H       -7.4105835796   -1.7889650142    3.4189089639
28   
torsion grid (-45,)
C       -0.8177474321    0.1185554203    0.8287976844
C       -1.8103405928   -0.8311721018    1.0473268966
C       -1.7054802398    1.5987120533    2.5324049625
C       -3.8410054839    0.6292103143    3.6840236000
C       -2.7300182424    0.6640478123    2.7808979430
C       -0.7471520709    1.3343027027    1.5576639324
C       -2.7720170506   -0.5448482313    2.0246505702
C       -4.4920277500   -0.5742332646    3.4858610801
C       -5.8049885359   -0.9857441375    3.9977327622
C        1.2907044274    2.5195207977    2.4875252281
C       -0.1710166434    3.6721456054    0.7630318122
C        0.3728156922    2.3234500752    1.2674275718
N       -3.8623793075   -1.2692900380    2.4582058600
O       -6.2134313251   -0.8290932225    5.1336020045
O       -6.5124226725   -1.6903586596    3.0583767335
H       -0.0645879412   -0.0767187700    0.0687701379
H       -1.8376669122   -1.7542252367    0.4738622500
H       -1.6695325245    2.5212854543    3.1069458412
H       -4.1355833817    1.3813228361    4.4039429036
H        0.7450827174    2.9709134471    3.3234586881
H        2.1287701460    3.1809579778    2.2401284536
H        1.6970088849    1.5634740925    2.8328388740
H       -0.7716311053    4.1690424527    1.5328308325
H       -0.8057162565    3.5364943453   -0.1185194707
H        0.6509159313    4.3458500339    0.4955055596
H        0.9831429688    1.8945282435    0.4633656146
H       -4.2116734815   -2.1282118447    2.0569634941
H       -7.3278782508   -1.9862438735    3.5068392620
28   
torsion grid (-30,)
C       -0.8245870070    0.1327049476    0.8066688397
C       -1.8276552132   -0.8097968448    1.0053853812
C       -1.7175555674    1.6061570573    2.5134592395
C       -3.8732877698    0.6455673300    3.6338169301
C       -2.7530190478    0.6781149411    2.7435956169
C       -0.7511709186    1.3417667544    1.5472755844
C       -2.7963843947   -0.5251788200    1.9767672432
C       -4.5359995540   -0.5478609144    3.4122968090
C       -5.8264097253   -0.9786585892    3.9521460582
C        1.2873330899    2.5011807336    2.5079497709
C       -0.1459994060    3.6807774654    0.7779169239
C        0.3804993970    2.3232097658    1.2768822908
N       -3.8956643016   -1.2445542983    2.3924196017
O       -6.2991792319   -0.6495573709    5.0249284607
O       -6.4403302853   -1.8891651286    3.1298862170
H       -0.0645235056   -0.0625442217    0.0535229435
H       -1.8570157975   -1.7272359933    0.4231251371
H       -1.6805489853    2.5238402949    3.0956867694
H       -4.1698080470    1.3915954983    4.3590707954
H        0.7371005782    2.9507286652    3.3418470795
H        2.1337302150    3.1570542650    2.2745287986
H        1.6816317836    1.5388141317    2.8496221517
H       -0.7499287216    4.1769304789    1.5455860906
H       -0.7727953453    3.5580366045   -0.1111427304
H        0.6847157464    4.3490380306    0.5242585605
H        0.9953748321    1.8953815526    0.4757076833
H       -4.2366645574   -2.1097636436    1.9973515017
H       -7.2536441772   -2.1627862688    3.5952346223
28   
torsion grid (-15,)
C       -0.8086403156    0.1634302742    0.7797570471
C       -1.8221119722   -0.7710558676    0.9616047544
C       -1.6947665321    1.6260161084    2.4987789284
C       -3.8616800631    0.6727136358    3.6019875443
C       -2.7397010385    0.7049515503    2.7148569575
C       -0.7264831350    1.3635612259    1.5343947851
C       -2.7909281556   -0.4899120379    1.9342209062
C       -4.5400935056   -0.5068696301    3.3555527533
C       -5.7976102949   -0.9650500446    3.9413795471
C        1.3090230059    2.5098193923    2.5186642588
C       -0.1003401082    3.6997265596    0.7761189634
C        0.4140099670    2.3385241260    1.2781157929
N       -3.8986133360   -1.2030024200    2.3361192350
O       -6.3343547072   -0.5044211232    4.9328348180
O       -6.3142635540   -2.0376405160    3.2591661425
H       -0.0464290204   -0.0308935981    0.0285547217
H       -1.8580430914   -1.6809240713    0.3679430895
H       -1.6527008733    2.5372657798    3.0906465996
H       -4.1532050999    1.4104924740    4.3374827078
H        0.7536657324    2.9637663681    3.3467532897
H        2.1626036993    3.1594115660    2.2940882797
H        1.6926155705    1.5446343647    2.8645330008
H       -0.7086367169    4.1977971936    1.5390993453
H       -0.7197607858    3.5816017600   -0.1187171339
H        0.7362394739    4.3638215385    0.5309151814
H        1.0348193692    1.9087630807    0.4825773844
H       -4.2212572645   -2.0846441777    1.9624287077
H       -7.1254037259   -2.2938494830    3.7375559243
28   
torsion grid (0,)
C       -0.8299466617    0.1663319211    0.7682703485
C       -1.8566414343   -0.7560520725    0.9369779684
C       -1.7132206527    1.6328434577    2.4855727238
C       -3.9008764022    0.7017334688    3.5659929753
C       -2.7711896041    0.7237005639    2.6887439534
C       -0.7397393251    1.3622268594    1.5288393795
C       -2.8288875485   -0.4687338317    1.9044875484
C       -4.5963103986   -0.4641254984    3.3025077873
C       -5.8215475897   -0.9477717181    3.9326807302
C        1.3016816788    2.4778894909    2.5352893911
C       -0.0785509091    3.6943812470    0.7878224774
C        0.4147322807    2.3242540893    1.2866424278
N       -3.9466101857   -1.1715978281    2.2961139281
O       -6.4421193656   -0.3834282191    4.8158514422
O       -6.2192232579   -2.1531916180    3.4113037686
H       -0.0632385864   -0.0345089890    0.0233636758
H       -1.8985072358   -1.6628200060    0.3389809053
H       -1.6660772158    2.5417973467    3.0805781397
H       -4.1879457481    1.4379146537    4.3047633631
H        0.7446877160    2.9326894706    3.3618080843
H        2.1641214879    3.1194167245    2.3216443626
H        1.6718643171    1.5063701576    2.8780406765
H       -0.6877326876    4.1955338337    1.5480627419
H       -0.6911398740    3.5888419513   -0.1132638259
H        0.7682059930    4.3496339437    0.5540553834
H        1.0365406733    1.8908985217    0.4938360924
H       -4.2616996310   -2.0615221723    1.9357437968
H       -7.0354460009   -2.3958458139    3.8879314114
28   
torsion grid (15,)
C       -0.8298958498    0.1820325575    0.7530001444
C       -1.8649564582   -0.7334963081    0.9076343016
C       -1.7142369799    1.6430708990    2.4742523486
C       -3.9174283435    0.7216338505    3.5317260272
C       -2.7807043909    0.7409146132    2.6631867892
C       -0.7357442572    1.3716428224    1.5227427935
C       -2.8400671061   -0.4468154845    1.8723098777
C       -4.6235535811   -0.4336225570    3.2503713076
C       -5.8116298698   -0.9527623042    3.9237502850
C        1.3064550994    2.4655408357    2.5513116259
C       -0.0516809864    3.7034876279    0.8015710114
C        0.4275939455    2.3265506990    1.2952532344
N       -3.9626883799   -1.1467868221    2.2553859165
O       -6.5321583843   -0.3307618139    4.6834941242
O       -6.0693715858   -2.2526803162    3.5679722108
H       -0.0591924801   -0.0197529236    0.0125056142
H       -1.9094888310   -1.6358172854    0.3031357309
H       -1.6651587949    2.5481691134    3.0749527120
H       -4.2018013407    1.4531433137    4.2762282107
H        0.7473019619    2.9207415121    3.3761593559
H        2.1760717549    3.1005967155    2.3476452275
H        1.6655191376    1.4889295709    2.8914133695
H       -0.6614978095    4.2050278211    1.5610482790
H       -0.6595526474    3.6081559857   -0.1038325029
H        0.8016983318    4.3532950919    0.5768456748
H        1.0520011225    1.8936014790    0.5042721046
H       -4.2736041930   -2.0387302653    1.8964937537
H       -6.8905883814   -2.5000353658    4.0336614201
28   
torsion grid (30,)
C       -0.8725752232    0.1746394381    0.7463549124
C       -1.9201763336   -0.7287677581    0.8889113528
C       -1.7451942924    1.6302312622    2.4788124675
C       -3.9605429118    0.7219727974    3.5239758414
C       -2.8219330098    0.7384177380    2.6568851743
C       -0.7670038852    1.3554663965    1.5275200067
C       -2.8926502791   -0.4408664386    1.8555691634
C       -4.6860728209   -0.4163113540    3.2232427855
C       -5.8386838004   -0.9680596112    3.9368528313
C        1.2768009440    2.4321626625    2.5729514283
C       -0.0571303088    3.6806782851    0.8120614799
C        0.4067283692    2.2999907878    1.3101580568
N       -4.0254341835   -1.1308322134    2.2289716463
O       -6.6632272288   -0.3301813474    4.5660738599
O       -5.9458321652   -2.3234082392    3.7536083014
H       -0.1016621753   -0.0301265416    0.0068887728
H       -1.9743906368   -1.6243874132    0.2753097032
H       -1.6877343337    2.5299595173    3.0868320443
H       -4.2351151692    1.4487350163    4.2769042036
H        0.7150952385    2.8914293965    3.3937875520
H        2.1525645920    3.0608547536    2.3760144028
H        1.6261362210    1.4528586229    2.9154308548
H       -0.6712613095    4.1861904856    1.5654108190
H       -0.6562867045    3.5900595748   -0.0996183988
H        0.8032794818    4.3242787870    0.5963815858
H        1.0337440177    1.8614827050    0.5243142341
H       -4.3190149530   -2.0376663328    1.8936988571
H       -6.7672670245   -2.5898981996    4.2087176413
28   
torsion grid (45,)
C       -0.8938067140    0.1850583791    0.7331083538
C       -1.9557893418   -0.7037617713    0.8641497844
C       -1.7585146396    1.6450209691    2.4657360595
C       -3.9938169415    0.7631085454    3.4915529999
C       -2.8480504287    0.7674107019    2.6322814842
C       -0.7771306026    1.3603676884    1.5200695771
C       -2.9290166378   -0.4072886231    1.8269057024
C       -4.7373305743   -0.3591526580    3.1767657579
C       -5.8680253120   -0.9306435530    3.9184862686
C        1.2733660582    2.4044804583    2.5851173982
C       -0.0309205534    3.6789884906    0.8206030935
C        0.4107747904    2.2898883287    1.3154943085
N       -4.0742677554   -1.0835490942    2.1912542327
O       -6.8039992800   -0.3109464046    4.3891158969
O       -5.8175624008   -2.3005043307    3.9348721141
H       -0.1205105713   -0.0278968950   -0.0015253403
H       -2.0186687850   -1.5956156279    0.2458627908
H       -1.6932043229    2.5418293670    3.0772917938
H       -4.2604690858    1.4907198499    4.2466766093
H        0.7118490207    2.8671954385    3.4041579867
H        2.1588177536    3.0224152296    2.3976282477
H        1.6071358249    1.4189573998    2.9252935123
H       -0.6436601887    4.1892115239    1.5719137847
H       -0.6247351601    3.6005612358   -0.0956853185
H        0.8395148461    4.3120354287    0.6140754352
H        1.0374746326    1.8465687660    0.5321011547
H       -4.3632489298   -1.9954134805    1.8660743349
H       -6.6388411126   -2.5912763913    4.3759928404
28   
torsion grid (60,)
C       -0.9128803452    0.1910899584    0.7147245885
C       -1.9836668918   -0.6893907216    0.8360948126
C       -1.7691340193    1.6407823994    2.4606689331
C       -4.0162771035    0.7696784927    3.4731181427
C       -2.8659488503    0.7716326309    2.6167690891
C       -0.7879949725    1.3565688142    1.5135501587
C       -2.9540031160   -0.3939081026    1.8012050958
C       -4.7699219932   -0.3396922044    3.1436232462
C       -5.8940720289   -0.9315945441    3.8932518893
C        1.2653229251    2.3803365592    2.5935896568
C       -0.0234571393    3.6740737488    0.8317228594
C        0.4071371809    2.2790876825    1.3199110658
N       -4.1066021913   -1.0643819588    2.1590666212
O       -6.9383456901   -0.3764329361    4.1773874087
O       -5.6850907468   -2.2616519927    4.1387347007
H       -0.1403402779   -0.0217401417   -0.0207270432
H       -2.0538050907   -1.5746219705    0.2090444017
H       -1.6973533283    2.5316489128    3.0801536587
H       -4.2766820252    1.4944650231    4.2332807141
H        0.7039148440    2.8423635238    3.4131011356
H        2.1558993785    2.9930309853    2.4132271270
H        1.5906605693    1.3905007738    2.9293929801
H       -0.6365161433    4.1832878749    1.5834830401
H       -0.6136884495    3.6049989785   -0.0876305862
H        0.8517901072    4.3030233874    0.6330396025
H        1.0340741131    1.8363553484    0.5363689375
H       -4.4004607354   -1.9691876536    1.8195118059
H       -6.5032358507   -2.5856790639    4.5633422852
28   
torsion grid (75,)
C       -0.9223190285    0.1661440643    0.6858442418
C       -1.9803628013   -0.7322820827    0.7963622315
C       -1.8075910772    1.5831526734    2.4438586076
C       -4.0482829266    0.6699309345    3.4391295928
C       -2.8911127843    0.6969019701    2.5872013815
C       -0.8182293577    1.3239407012    1.4965417521
C       -2.9571563824   -0.4606651303    1.7604847134
C       -4.7772259260   -0.4476296671    3.0966823159
C       -5.9288328792   -1.0575535835    3.8077012647
C        1.2282555705    2.3420872304    2.5926115701
C       -0.0809580479    3.6673689013    0.8698358782
C        0.3653169753    2.2647847827    1.3203004771
N       -4.1012830749   -1.1552337725    2.1103682961
O       -7.0651544685   -0.6275461664    3.8273480693
O       -5.5910820901   -2.2552188228    4.3669570006
H       -0.1450150312   -0.0275135823   -0.0498331142
H       -2.0349477334   -1.6125774875    0.1607295535
H       -1.7504830218    2.4684244497    3.0729046722
H       -4.3216287486    1.3852184233    4.2037063591
H        0.6646993722    2.7753016223    3.4263107964
H        2.1111599197    2.9695147537    2.4252454584
H        1.5660684410    1.3473653040    2.9005348465
H       -0.6940036392    4.1525712688    1.6373062731
H       -0.6758329568    3.6157421634   -0.0476658249
H        0.7874211621    4.3090967277    0.6820175993
H        0.9931699105    1.8487826508    0.5229404344
H       -4.4021128360   -2.0374188315    1.7214909536
H       -6.4141473969   -2.6137199489    4.7541118920
28   
torsion grid (90,)
C       -0.9007600063    0.1977320683    0.6406536026
C       -1.9345243454   -0.7291224628    0.7560483618
C       -1.7671993591    1.5376237718    2.4672411738
C       -3.9601740100    0.5444210852    3.4978417185
C       -2.8273457402    0.6252010771    2.6120750255
C       -0.7998792013    1.3313077534    1.4833921719
C       -2.8939245849   -0.5028164788    1.7474668071
C       -4.6512417758   -0.5942565526    3.1606620454
C       -5.9479968764   -1.1089155317    3.6923423344
C        1.2622758264    2.3444918824    2.5530423411
C       -0.1273568078    3.7134320284    0.9307150966
C        0.3589292749    2.3024837690    1.3073023857
N       -4.0158631145   -1.2338144493    2.1061746056
O       -7.0409140612   -0.8423956517    3.2349035866
O       -5.7786199610   -1.9164236953    4.7698874915
H       -0.1425776440    0.0453816218   -0.1240659748
H       -1.9875149999   -1.5919356145    0.0966251851
H       -1.7078908043    2.4015198553    3.1251918501
H       -4.2306019055    1.2356983420    4.2850777307
H        0.7186285186    2.7321283136    3.4216976503
H        2.1278878830    2.9951048497    2.3835396929
H        1.6276583827    1.3446304102    2.8083773873
H       -0.7229500372    4.1548803144    1.7373507153
H       -0.7516200152    3.6879770493    0.0318288533
H        0.7225484496    4.3791227706    0.7415624084
H        0.9674036741    1.9320280877    0.4732815430
H       -4.3593098551   -2.0576194022    1.6334027737
H       -6.6740898390   -2.1877986914    5.0558594868
28   
torsion grid (105,)
C       -0.9034608236    0.1950287031    0.6089651771
C       -1.9023556644   -0.7661289109    0.7377367793
C       -1.7292462597    1.4571136243    2.5078456329
C       -3.8513097068    0.3746550154    3.5871708974
C       -2.7590242363    0.5105932133    2.6646479069
C       -0.7989646763    1.3080128022    1.4807032864
C       -2.8335144496   -0.5929344363    1.7678377353
C       -4.5177230580   -0.7890637828    3.2618954734
C       -5.8931524348   -1.1982710229    3.6370307857
C        1.2853001935    2.3346550069    2.4914884151
C       -0.2116230388    3.7255997838    0.9872443213
C        0.3260209498    2.3150776385    1.2876669302
N       -3.9182729150   -1.3616418259    2.1461857606
O       -6.8444235903   -1.1888769910    2.8768591268
O       -6.0152476217   -1.4646571298    4.9622652876
H       -0.1742111110    0.0889558751   -0.1909552266
H       -1.9565450498   -1.6111961287    0.0560443456
H       -1.6657465317    2.3005039515    3.1914315620
H       -4.1123030667    1.0391667948    4.4003948232
H        0.7730541742    2.6744382916    3.3984162508
H        2.1252310779    3.0143629579    2.3078287958
H        1.6875364416    1.3362259200    2.6908617006
H       -0.7783448183    4.1222462160    1.8368123765
H       -0.8771725635    3.7168077779    0.1181714600
H        0.6120798522    4.4192915752    0.7837049759
H        0.9036059967    1.9912023857    0.4133088522
H       -4.3176945143   -2.1223244945    1.6142279004
H       -6.9686225336   -1.6063802682    5.1265257452
28   
torsion grid (120,)
C       -0.9224658143    0.2034124802    0.5938853926
C       -1.9174717076   -0.7612838774    0.7183023417
C       -1.7259163569    1.4380753873    2.5196612842
C       -3.8344129407    0.3388105784    3.6042240476
C       -2.7528292239    0.4867620966    2.6742831334
C       -0.8079859493    1.3048676477    1.4805166766
C       -2.8373619328   -0.6055503402    1.7623641431
C       -4.5059470814   -0.8219431294    3.2684088846
C       -5.8724547114   -1.2385261470    3.6315110930
C        1.2855670599    2.3228073484    2.4813896779
C       -0.2292509800    3.7286665230    1.0091900589
C        0.3137239735    2.3156354748    1.2875634520
N       -3.9156299673   -1.3795786011    2.1399760072
O       -6.7562677657   -1.4747891224    2.8241474465
O       -6.0908273238   -1.2068524972    4.9717078119
H       -0.2020537962    0.1105089743   -0.2156451188
H       -1.9780312909   -1.5961287108    0.0247832475
H       -1.6560906712    2.2714201153    3.2148450346
H       -4.0887862959    0.9908013868    4.4294570067
H        0.7824890350    2.6514983916    3.3974825706
H        2.1224334947    3.0059317785    2.2966159416
H        1.6914762928    1.3228743814    2.6651030837
H       -0.7876038696    4.1144284206    1.8692479312
H       -0.9037892603    3.7289767652    0.1470278192
H        0.5912410740    4.4259631096    0.8051466244
H        0.8825132138    2.0028969646    0.4034618646
H       -4.3387132842   -2.1188306999    1.5953672642
H       -7.0459960236   -1.3715456987    5.0947574400
28   
torsion grid (135,)
C       -0.9263475027    0.2195298942    0.5840684393
C       -1.9242010234   -0.7422797770    0.7030404333
C       -1.7215189819    1.4425818306    2.5212505805
C       -3.8314057855    0.3422326418    3.6013915353
C       -2.7512358863    0.4929835587    2.6719812256
C       -0.8066037306    1.3140643934    1.4795243182
C       -2.8407069106   -0.5935924992    1.7517666939
C       -4.5104867664   -0.8114998862    3.2529439823
C       -5.8466415875   -1.2737984526    3.6447150800
C        1.2923842492    2.3179042665    2.4828354407
C       -0.2215664036    3.7393631148    1.0247041891
C        0.3177735686    2.3226637521    1.2912714055
N       -3.9198263136   -1.3661381657    2.1243532353
O       -6.6656101766   -1.7429813024    2.8685585717
O       -6.1273895323   -1.0311070289    4.9517428230
H       -0.2076644210    0.1305600018   -0.2274759715
H       -1.9893013363   -1.5711795451    0.0029387148
H       -1.6481148168    2.2709352166    3.2219830718
H       -4.0836011340    0.9878589379    4.4321010015
H        0.7923964918    2.6412954837    3.4024970067
H        2.1308761523    2.9998326799    2.3011722271
H        1.6956904928    1.3154211240    2.6581645880
H       -0.7765482486    4.1204917995    1.8889939424
H       -0.8982008792    3.7481675358    0.1642298380
H        0.6005878110    4.4355673281    0.8237766264
H        0.8834228947    2.0147675190    0.4034728967
H       -4.3457423088   -2.1080393913    1.5848907458
H       -7.0656663563   -1.2722247831    5.0747788296
28   
torsion grid (150,)
C       -0.9424015171    0.2222048623    0.5758864083
C       -1.9468536780   -0.7327592883    0.6903241068
C       -1.7287169187    1.4429733252    2.5181034447
C       -3.8450905614    0.3524986846    3.5947062508
C       -2.7651707933    0.4995979553    2.6656956973
C       -0.8148194043    1.3124040766    1.4763449207
C       -2.8616569673   -0.5841499436    1.7411386967
C       -4.5345231629   -0.7925582143    3.2365320539
C       -5.8312264161   -1.3082790388    3.6743952419
C        1.2900909615    2.2983902950    2.4848699459
C       -0.2122590860    3.7349135025    1.0295928711
C        0.3168405611    2.3136184788    1.2922625151
N       -3.9435953172   -1.3519116138    2.1113471673
O       -6.5694163412   -1.9889505894    2.9756183569
O       -6.1751433094   -0.8962371660    4.9228556592
H       -0.2238242246    0.1314861973   -0.2355860229
H       -2.0175583572   -1.5580733541   -0.0134060478
H       -1.6500751715    2.2681811411    3.2219631025
H       -4.0919483348    0.9942597121    4.4298587565
H        0.7914208792    2.6226101641    3.4049488690
H        2.1335497470    2.9749241575    2.3061209991
H        1.6861604287    1.2925904342    2.6576624208
H       -0.7655191833    4.1171052767    1.8945155959
H       -0.8878082376    3.7513012705    0.1683781770
H        0.6150055254    4.4259462195    0.8318586516
H        0.8813013086    2.0045120395    0.4041324537
H       -4.3655384076   -2.1066501837    1.5861828353
H       -7.0797323210   -1.2301595576    5.0751414769
28   
torsion grid (165,)
C       -0.9840216040    0.1924943890    0.5589424623
C       -2.0014433894   -0.7485595358    0.6705949667
C       -1.7547232906    1.4187284974    2.5038871224
C       -3.8808130521    0.3506525120    3.5824152131
C       -2.8028201620    0.4876746864    2.6506245743
C       -0.8426484582    1.2791997679    1.4621290464
C       -2.9138688642   -0.5932568090    1.7229592610
C       -4.5873782285   -0.7815028913    3.2157762912
C       -5.8371060924   -1.3473627176    3.7156530536
C        1.2680613436    2.2486299200    2.4759899451
C       -0.2133089593    3.6927685387    1.0068146940
C        0.3004246108    2.2675624041    1.2789431166
N       -4.0058098275   -1.3464259030    2.0895720955
O       -6.4818189551   -2.2064056915    3.1287980157
O       -6.2427897340   -0.7978098646    4.8906287178
H       -0.2660182248    0.0938808654   -0.2521378323
H       -2.0831145792   -1.5705370957   -0.0358041842
H       -1.6662202090    2.2418894041    3.2089805898
H       -4.1163095604    0.9896416628    4.4228519364
H        0.7690618880    2.5832792479    3.3921341599
H        2.1193412618    2.9152762774    2.2972355437
H        1.6528035957    1.2397079552    2.6560114036
H       -0.7675645612    4.0840182687    1.8670519000
H       -0.8840921289    3.7117081810    0.1419284849
H        0.6216436055    4.3748687549    0.8103472947
H        0.8658781281    1.9483773734    0.3950180516
H       -4.4015228083   -2.1402034712    1.6029337149
H       -7.0972781350   -1.2196038922    5.1015267694
28   
torsion grid (180,)
C       -0.9761613568    0.2167409732    0.5497885337
C       -2.0023274830   -0.7162323550    0.6459199248
C       -1.7538290780    1.4399499743    2.4950333782
C       -3.8931762225    0.3776672487    3.5531646420
C       -2.8093945136    0.5151979349    2.6282913658
C       -0.8346386589    1.2976734794    1.4600572996
C       -2.9200790063   -0.5600451395    1.6935462524
C       -4.6110771240   -0.7411830590    3.1681280549
C       -5.8023332502   -1.3745195835    3.7238768017
C        1.2742500836    2.2477496710    2.4955267755
C       -0.1844045669    3.7083220635    1.0197678109
C        0.3169127780    2.2784445577    1.2904886667
N       -4.0224571575   -1.3043436387    2.0452392103
O       -6.3227357154   -2.3789766575    3.2558755050
O       -6.2867360069   -0.7390265203    4.8232309425
H       -0.2512712459    0.1166703250   -0.2549518606
H       -2.0852920615   -1.5331838115   -0.0661506096
H       -1.6658515844    2.2597681336    3.2041203986
H       -4.1297024578    1.0120821572    4.3967285617
H        0.7699214118    2.5824074211    3.4087485765
H        2.1318286288    2.9088606705    2.3266230547
H        1.6501006181    1.2353377370    2.6747463565
H       -0.7425927425    4.1003473933    1.8770975113
H       -0.8482026516    3.7353148027    0.1497164033
H        0.6569647453    4.3850773922    0.8324286806
H        0.8873974694    1.9587099240    0.4100043783
H       -4.3783729819   -2.1372568433    1.5946190531
H       -7.0731655667   -1.2464685454    5.0997997248
