27   
torsion grid (-165,)
C        0.4761394788    1.2055839279    0.8778687905
C        0.3959219879    0.9309692738   -0.6178997981
C       -1.2408189000   -1.4297927856    0.6674302882
C       -0.6529119744   -1.4245793712   -0.7517797025
C       -1.6849945932   -0.0568176311    1.1907939575
C        0.6117355025   -0.5646530321   -0.9550633937
C        1.0135783387   -2.3755589072   -3.3476175046
N       -0.5859281631    0.7947569422    1.6375196749
N        1.5081525163   -2.5131938541   -4.7201250385
O        1.4516988360    1.7627016336    1.3809773235
O        0.4836137455    0.3408589413   -3.6350502238
P        1.1629897755   -0.6426783001   -2.7208454331
H       -0.5563836113    1.2604368583   -1.0437268773
H        1.1763801080    1.5481363773   -1.0662942308
H       -2.1154794876   -2.0916567825    0.6604873806
H       -0.5219724708   -1.8602446992    1.3752321127
H       -0.4334412129   -2.4632110501   -1.0212011906
H       -1.4253290581   -1.0780089705   -1.4508331599
H       -2.2773251980    0.4627314199    0.4271130478
H       -2.3432225289   -0.1922275140    2.0526788726
H        1.4369497584   -0.9619193509   -0.3485672856
H       -0.0463675808   -2.6461837171   -3.3308409680
H        1.5424973341   -3.0757032897   -2.6901056535
H       -0.4561686914    0.9336859776    2.6329694082
H        2.5077004874   -2.3190846886   -4.7621567742
H        1.0506557098   -1.8197846224   -5.3120592442
H        2.5728467971   -0.4760866589   -2.6058199711
27   
torsion grid (-150,)
C        0.3940359694    1.2758063095    0.8367554941
C        0.3506227700    0.9417513774   -0.6483071366
C       -1.1617024494   -1.4662070153    0.7002753670
C       -0.5585175165   -1.4700508799   -0.7125227048
C       -1.6901403544   -0.1058678519    1.1767415906
C        0.6625132348   -0.5504685714   -0.9207059973
C        0.8764017251   -2.3220299668   -3.3945419684
N       -0.6483507426    0.8244178658    1.6018574939
N        1.3691738068   -2.4515282599   -4.7678562939
O        1.3245797277    1.9127270224    1.3298876632
O        0.8914641184    0.4483646830   -3.5717505840
P        1.3074501030   -0.6767860988   -2.6626949889
H       -0.6172118199    1.1935612102   -1.0924935720
H        1.0916394598    1.5878663387   -1.1192910654
H       -1.9971412022   -2.1770429630    0.7056963217
H       -0.4271287279   -1.8329352505    1.4275320447
H       -0.2854848910   -2.5031947321   -0.9522330031
H       -1.3414835236   -1.1818150915   -1.4265050128
H       -2.3075879685    0.3517421658    0.3933383607
H       -2.3455283911   -0.2536893120    2.0387734892
H        1.4819225532   -0.8753800647   -0.2662603458
H       -0.2138703484   -2.4128129032   -3.4029677351
H        1.2696921217   -3.1410495881   -2.7814931319
H       -0.5411543688    1.0107009010    2.5922011217
H        2.3881457522   -2.4451143548   -4.7842825617
H        1.0646714247   -1.6422143282   -5.3093579429
H        2.7135064432   -0.7902745150   -2.4667104950
27   
torsion grid (-135,)
C        0.3152733189    1.3410806133    0.7711503757
C        0.2954852869    0.9383014039   -0.6970268763
C       -1.0853056654   -1.4975428102    0.7531208318
C       -0.4836399042   -1.5223523157   -0.6600263846
C       -1.6849909625   -0.1485247037    1.1756132186
C        0.6867240775   -0.5466085579   -0.8944848540
C        0.7441344704   -2.2314217410   -3.4589514255
N       -0.6965806282    0.8555676322    1.5578587056
N        1.2806595249   -2.3630473537   -4.8151543367
O        1.2006987555    2.0576819752    1.2361312094
O        1.3355655157    0.4874520886   -3.4705946856
P        1.4267173161   -0.7365959599   -2.6003934236
H       -0.6879072391    1.1167057736   -1.1449484595
H        1.0003330722    1.5949545833   -1.2059672808
H       -1.8817828491   -2.2509309206    0.7895649134
H       -0.3310717544   -1.7950183231    1.4917081265
H       -0.1581752264   -2.5479440996   -0.8657288641
H       -1.2810058522   -1.2993897068   -1.3809631518
H       -2.3280243118    0.2410859172    0.3760461781
H       -2.3305528184   -0.2959097826    2.0451073439
H        1.5003532750   -0.7904452860   -0.1993508872
H       -0.3439249797   -2.1303282226   -3.5188643303
H        0.9577604184   -3.1416082890   -2.8883224107
H       -0.5999273110    1.0890366089    2.5392367409
H        2.2840262138   -2.5398574429   -4.7861289274
H        1.1580136973   -1.4789794581   -5.3096704055
H        2.7576614653   -1.1568854961   -2.3158765331
27   
torsion grid (-120,)
C        0.2313851032    1.3948175356    0.7005379856
C        0.2542762413    0.9213802510   -0.7468050152
C       -0.9989425579   -1.5299966270    0.8173528759
C       -0.3897092050   -1.5876313907   -0.5913002915
C       -1.6779244860   -0.1977533584    1.1668069821
C        0.7131027534   -0.5500532041   -0.8711117060
C        0.6061919983   -2.0843339010   -3.5306862908
N       -0.7528405678    0.8797037680    1.5041543002
N        1.2110379699   -2.2645868606   -4.8524032532
O        1.0589738130    2.1932685358    1.1364768425
O        1.7430474821    0.4592326153   -3.3336138454
P        1.5071761631   -0.7986421255   -2.5440550089
H       -0.7322532153    1.0400631420   -1.2104288617
H        0.9433171186    1.5775631525   -1.2782682026
H       -1.7501981685   -2.3259649178    0.8900375572
H       -0.2326694969   -1.7442274433    1.5720223804
H        0.0079111023   -2.5978195437   -0.7438696104
H       -1.1966710394   -1.4581920351   -1.3238772441
H       -2.3348872879    0.1130740944    0.3441909052
H       -2.3222097965   -0.3380154039    2.0384178176
H        1.5342226999   -0.7067543139   -0.1594041018
H       -0.4340128760   -1.7678304236   -3.6600080230
H        0.5936639473   -3.0408613923   -2.9986660711
H       -0.6838821301    1.1714812675    2.4721617846
H        2.1541673760   -2.6408668760   -4.7636645027
H        1.3053741360   -1.3548893282   -5.3048103186
H        2.6928698285   -1.5136890906   -2.2061026772
27   
torsion grid (-105,)
C        0.8415649978    0.7665612109    1.1596954073
C        0.6634519294    0.9392897774   -0.3439260725
C       -1.5593681455   -1.2044938584    0.4260101199
C       -1.0427584764   -0.9210125436   -0.9916042431
C       -1.5740791639    0.0230217136    1.3482713231
C        0.4031405132   -0.4009270848   -1.0667471045
C       -0.4388438807   -0.1102412491   -3.9883521415
N       -0.2656236407    0.3940533679    1.8773925416
N        0.0037216434    0.0013551368   -5.3804162587
O        1.9276601676    0.9412761729    1.7088664796
O        2.0642421882    0.7483441277   -3.0750314862
P        0.9947663424   -0.2776690300   -2.8255196364
H       -0.1533124615    1.6412349316   -0.5548517403
H        1.5871778160    1.3860057487   -0.7130608297
H       -2.5854663144   -1.5828589428    0.3418857826
H       -0.9641216414   -1.9948610995    0.8984535693
H       -1.1295314929   -1.8448313042   -1.5774082157
H       -1.7118357831   -0.1903544607   -1.4635679406
H       -2.0264256969    0.8758236222    0.8252361637
H       -2.2116318991   -0.1808465365    2.2122121578
H        1.0729434071   -1.1492018105   -0.6219666123
H       -1.0000983220    0.7932409670   -3.7253156877
H       -1.1206889950   -0.9600353586   -3.8858647372
H       -0.0806257066    0.2403289332    2.8617094196
H        0.4655834635   -0.8577798527   -5.6763703131
H        0.7010774679    0.7426204756   -5.4525728150
H        1.3854921087   -1.6235937031   -3.0884180986
27   
torsion grid (-90,)
C        0.7858822183    0.8766689922    1.0893142297
C        0.6195467388    0.9288968459   -0.4259455171
C       -1.5116427874   -1.2777859320    0.4622003470
C       -1.0061390391   -1.0347918574   -0.9661336838
C       -1.5835119981   -0.0069708208    1.3203714682
C        0.4195203769   -0.4648518868   -1.0599485909
C       -0.4062857810    0.0445998588   -3.9266282978
N       -0.2935217331    0.4556158184    1.8220009349
N        0.0207787355    0.1967416973   -5.3196681534
O        1.8430223428    1.1864049708    1.6350089936
O        2.2370619126    0.3786127826   -3.0787292983
P        0.9996684751   -0.4324846928   -2.8170374952
H       -0.2206468532    1.5834323608   -0.6917785791
H        1.5336780293    1.3831775007   -0.8108037336
H       -2.5191830710   -1.7065215077    0.3987731403
H       -0.8798563160   -2.0149145834    0.9714967478
H       -1.0578817368   -1.9822626006   -1.5183412012
H       -1.7010584988   -0.3469556448   -1.4642215736
H       -2.0805458758    0.7934173117    0.7560463085
H       -2.2068037735   -0.1972902398    2.1976569314
H        1.1173122279   -1.1572150808   -0.5696353317
H       -0.8127252927    1.0004637869   -3.5765715651
H       -1.2124330108   -0.6933163075   -3.8671824527
H       -0.1144953604    0.4046182861    2.8179455569
H        0.3161073079   -0.7019278471   -5.6992229945
H        0.8398193571    0.8045280260   -5.3534881525
H        1.1207438306   -1.8254398858   -3.0967390065
27   
torsion grid (-75,)
C        0.7280363190    0.9647772412    1.0029371516
C        0.5483170214    0.9121468048   -0.5114198085
C       -1.4686359638   -1.3411323203    0.5141311629
C       -0.9838432082   -1.1443327757   -0.9282349646
C       -1.5864338980   -0.0373971243    1.3150862614
C        0.4189349876   -0.5262490563   -1.0603225495
C       -0.3342913151    0.2108979415   -3.8731562084
N       -0.3115402463    0.5078787758    1.7705097302
N        0.0844190315    0.3529763884   -5.2697370147
O        1.7621488872    1.3854547018    1.5170959420
O        2.3370646600    0.0261564396   -3.0818074034
P        0.9793818650   -0.5605465673   -2.8189367268
H       -0.3293890709    1.5018309247   -0.8051600936
H        1.4351997507    1.3940511835   -0.9265026284
H       -2.4586916770   -1.8119039152    0.4801962076
H       -0.8035132798   -2.0283659274    1.0499363068
H       -1.0050582457   -2.1163149196   -1.4376013013
H       -1.7081287500   -0.5052506849   -1.4495987023
H       -2.1330935741    0.7114112690    0.7259114595
H       -2.1832477035   -0.2184322123    2.2125161385
H        1.1494800873   -1.1588415266   -0.5384915900
H       -0.5535068323    1.2054038435   -3.4683542601
H       -1.2600110782   -0.3717357408   -3.8239767963
H       -0.1290940460    0.5467558544    2.7663441090
H        0.2039597160   -0.5641270324   -5.6979935419
H        0.9994959219    0.8037212842   -5.2990870842
H        0.8484510663   -1.9443834982   -3.1355447639
27   
torsion grid (-60,)
C        0.6587093799    1.0301511582    0.9287484964
C        0.4665439667    0.8926768494   -0.5788534863
C       -1.4174100805   -1.4001921680    0.5753383282
C       -0.9492726430   -1.2607508484   -0.8793563105
C       -1.5993768666   -0.0654942650    1.3097651278
C        0.4163928629   -0.5745603955   -1.0632719286
C       -0.2254371901    0.3969801631   -3.8252796663
N       -0.3510540949    0.5640850981    1.7285953335
N        0.1473073252    0.4594732247   -5.2407735213
O        1.6752686907    1.5279890374    1.4076264175
O        2.3772725171   -0.3030183045   -3.1035650148
P        0.9397757693   -0.6453004831   -2.8332144846
H       -0.4472677466    1.4154761092   -0.8870936430
H        1.3197646482    1.4100277556   -1.0221162402
H       -2.3813999392   -1.9233802384    0.5730380317
H       -0.7151915960   -2.0229043850    1.1418232946
H       -0.9160535426   -2.2615238177   -1.3267143902
H       -1.7122859919   -0.6990929683   -1.4350289394
H       -2.1853458568    0.6246735725    0.6876484432
H       -2.1825743387   -0.2308809655    2.2190649156
H        1.1923868301   -1.1431285494   -0.5343923912
H       -0.2014529718    1.4111603728   -3.4129200195
H       -1.2531872047    0.0297566846   -3.7300229074
H       -0.1659146648    0.6641822554    2.7196612391
H        0.0668798258   -0.4610441212   -5.6707671920
H        1.1291346127    0.7270964693   -5.3148196693
H        0.5601987252   -1.9680078892   -3.2043807917
27   
torsion grid (-45,)
C        0.5800897764    1.0769840377    0.8749445041
C        0.3817587614    0.8828285273   -0.6259833993
C       -1.3555304164   -1.4486903934    0.6360870780
C       -0.8997672405   -1.3586359622   -0.8266922065
C       -1.6250977809   -0.0943542549    1.3044768179
C        0.4189570131   -0.5990932831   -1.0669818939
C       -0.0805964623    0.5672525758   -3.7913739923
N       -0.4208649086    0.6313303310    1.6957610441
N        0.1909225548    0.5276539101   -5.2306555262
O        1.5917640172    1.6086743571    1.3274049125
O        2.3596434189   -0.6266402268   -3.1508127705
P        0.8882887405   -0.7019422492   -2.8559828556
H       -0.5629864148    1.3401457424   -0.9434688950
H        1.2000893154    1.4400621305   -1.0864774397
H       -2.2820507730   -2.0350197675    0.6649616810
H       -0.6128836608   -1.9941952825    1.2301513660
H       -0.8035291139   -2.3786491091   -1.2159979595
H       -1.6999971931   -0.8815866118   -1.4104565747
H       -2.2468748790    0.5288958582    0.6478560200
H       -2.2035547856   -0.2499116925    2.2185014059
H        1.2429235649   -1.1029016592   -0.5464984475
H        0.2019489775    1.5537412070   -3.4115960097
H       -1.1555023578    0.4437522625   -3.6140717710
H       -0.2217177001    0.7458645932    2.6826601939
H       -0.0991424034   -0.3660147319   -5.6255121239
H        1.1971277970    0.5991087292   -5.3824655367
H        0.2629925781   -1.9142096872   -3.2690385904
27   
torsion grid (-30,)
C        0.8567086038    0.9492410856    0.8826310297
C        1.7024437683    0.1101131566   -0.0686938857
C       -1.1527677504   -1.3288109343   -0.2918180920
C        0.0865571264   -1.6113316157   -1.1467565389
C       -0.8338699309   -0.9303813578    1.1522701136
C        1.0564166209   -0.4343170380   -1.3610983465
C       -0.2190375329    2.3874531691   -1.6798831435
N       -0.3460690984    0.4408499797    1.2996276882
N       -0.7485849344    3.3446934037   -2.6543735661
O        1.2354999484    2.0583947358    1.2584514683
O        1.3135639175    1.1571351936   -3.6637418061
P        0.3782715554    0.8535401623   -2.5238407230
H        2.5574912466    0.7404040239   -0.3194443364
H        2.0966825931   -0.7466583086    0.4957189623
H       -1.7760693778   -0.5485256368   -0.7447733129
H       -1.7624427953   -2.2395065698   -0.2631605304
H        0.6523210905   -2.4263434287   -0.6751069735
H       -0.2305853684   -1.9916719033   -2.1244294257
H       -1.7453041114   -0.9953828091    1.7515951547
H       -0.1208444906   -1.6457159303    1.5859031372
H        1.8857619770   -0.8191697439   -1.9668705346
H        0.6133698470    2.8472224452   -1.1416546850
H       -0.9871144288    2.1438209019   -0.9389265245
H       -0.7965279454    1.0285123943    1.9924715539
H       -1.5549477503    2.9555365694   -3.1415470774
H       -0.0399548693    3.5271883893   -3.3648483167
H       -0.8560672624    0.2647134870   -2.9291614504
27   
torsion grid (-15,)
C        0.7362975071    0.9599128458    0.9015540109
C        1.6318331175    0.1704243821   -0.0455765792
C       -1.1230206584   -1.4494727222   -0.2766640193
C        0.1243223150   -1.6344722067   -1.1473443205
C       -0.8245283059   -1.0247585346    1.1638036454
C        1.0192747985   -0.3950377071   -1.3452431784
C       -0.0424741760    2.5013674472   -1.7364466102
N       -0.4405287935    0.3811328150    1.3018783037
N       -0.5596679841    3.4478361298   -2.7279218508
O        1.0487845356    2.0870952302    1.2839609406
O        1.0059174664    0.9436736176   -3.8096169283
P        0.2557068451    0.8456524719   -2.5073316258
H        2.4586443325    0.8419290426   -0.2834041408
H        2.0613746385   -0.6712984072    0.5157531703
H       -1.8100139239   -0.7201859630   -0.7210817896
H       -1.6587735604   -2.4053966314   -0.2430960142
H        0.7451725493   -2.4221579821   -0.6991335623
H       -0.1773024061   -2.0123097547   -2.1310941049
H       -1.7245721003   -1.1561235788    1.7694708613
H       -0.0562636678   -1.6811125485    1.5961496770
H        1.8695136321   -0.7228060191   -1.9551423737
H        0.8942896698    2.8853397452   -1.3245334733
H       -0.7441993347    2.4152899416   -0.9018446031
H       -0.9296128956    0.9350794141    1.9963852901
H       -1.4751683482    3.1511214538   -3.0635746523
H        0.0576891313    3.4555829210   -3.5399840061
H       -1.0777937356    0.3646984187   -2.6513822281
27   
torsion grid (0,)
C        0.8152395384    0.9777204349    0.5475084530
C        1.6163457341    0.0280319540   -0.3349522928
C       -1.2104729450   -1.4892592465   -0.1142778692
C       -0.0560260223   -1.8455495630   -1.0564870941
C       -0.7606489224   -0.8967049259    1.2239400440
C        0.8780511228   -0.6951650286   -1.4835895250
C        0.4093475127    2.1332116078   -2.4497298645
N       -0.3237172933    0.4971017385    1.1378354068
N        1.8502378930    2.3866431744   -2.5540997839
O        1.1604178873    2.1496553720    0.7189211078
O        0.5083472501   -0.0761253770   -4.1903196364
P        0.1110235541    0.3601782620   -2.8071386009
H        2.4258997577    0.6287045214   -0.7479296280
H        2.0580062610   -0.7422874924    0.3135023748
H       -1.9092597791   -0.7914345197   -0.5886794852
H       -1.7739928911   -2.4067307125    0.0931564001
H        0.5659417228   -2.6054792769   -0.5640135850
H       -0.4580484321   -2.3245208108   -1.9569697969
H       -1.5992194227   -0.9114069241    1.9247197352
H        0.0283703404   -1.5219844909    1.6645469773
H        1.6730690327   -1.1647518267   -2.0759073081
H        0.0727049113    2.3608055260   -1.4365776702
H       -0.2191626720    2.7090292099   -3.1491411298
H       -0.7538428135    1.1669483690    1.7656646097
H        2.0906538828    3.2643001503   -2.1010124522
H        2.1307623729    2.4354357673   -3.5304300535
H       -1.2843287558    0.2594633258   -2.5431730061
27   
torsion grid (15,)
C        0.6122097940    0.9949530298    0.6327019548
C        1.5150558992    0.1429935204   -0.2528726405
C       -1.1835178079   -1.5871478052   -0.1082147200
C       -0.0178886252   -1.8140439388   -1.0772448410
C       -0.7551420683   -1.0518367528    1.2625846340
C        0.8436271228   -0.5870071068   -1.4359821235
C        0.5954794267    2.2111155210   -2.5042636848
N       -0.4248546691    0.3720594271    1.2679335442
N        2.0333520584    2.2633548399   -2.8048236398
O        0.7956635102    2.2082700008    0.7710706588
O        0.1872633320   -0.0729144717   -4.1021895488
P        0.0317463108    0.4797189037   -2.7121081409
H        2.2865759216    0.8118548862   -0.6342071524
H        2.0018720009   -0.6141063412    0.3775076750
H       -1.9289996259   -0.9067396832   -0.5342739964
H       -1.6870291937   -2.5491569259    0.0445381062
H        0.6518405858   -2.5641712373   -0.6351443444
H       -0.3958503809   -2.2572813157   -2.0054655378
H       -1.5738077882   -1.1788558121    1.9753314364
H        0.0889636484   -1.6405075207    1.6469426942
H        1.6763934429   -0.9775184292   -2.0349582547
H        0.4302548725    2.5266245100   -1.4717047538
H       -0.0416892880    2.8273294892   -3.1604718643
H       -0.9657043375    0.9913568172    1.8603852950
H        2.3988365091    3.1905610968   -2.5992365481
H        2.1863865495    2.0835913247   -3.7954920981
H       -1.3153383754    0.5833331927   -2.2649757822
27   
torsion grid (30,)
C        0.4802274797    1.0109111624    0.6621540952
C        1.4575370012    0.2133987951   -0.1941162047
C       -1.1336519863   -1.6627908571   -0.1303898744
C        0.0494289159   -1.7923251739   -1.0978286201
C       -0.7533468723   -1.1263092737    1.2552695188
C        0.8379836470   -0.5053853305   -1.4102889950
C        0.7180528826    2.2435485148   -2.5363919560
N       -0.5090845090    0.3150058709    1.2953723604
N        2.1206937932    2.1085338494   -2.9581446753
O        0.5612922933    2.2385368429    0.7702620430
O       -0.1915186782   -0.0184508212   -3.9616734743
P       -0.0669903420    0.5871792757   -2.5905371506
H        2.2184747245    0.9149139350   -0.5355089184
H        1.9510110502   -0.5395513911    0.4348469631
H       -1.9230191128   -1.0298615389   -0.5505653059
H       -1.5700805170   -2.6600878947    0.0013434714
H        0.7603227961   -2.5148876488   -0.6742030693
H       -0.2980922396   -2.2230694806   -2.0428191633
H       -1.5686575373   -1.3180217448    1.9573399641
H        0.1219018069   -1.6678238038    1.6382332679
H        1.6864823365   -0.8138281381   -2.0340249950
H        0.6746247931    2.6210868494   -1.5114510592
H        0.1020923716    2.9004413088   -3.1725908918
H       -1.1341155890    0.8979880663    1.8398137384
H        2.5985217628    3.0022707921   -2.8628337780
H        2.1599564068    1.8496242032   -3.9426956430
H       -1.3043478533    0.8547828494   -1.9432053209
27   
torsion grid (45,)
C        0.3753941579    1.0130650843    0.7086664175
C        1.4184207941    0.2589786275   -0.1059993538
C       -1.0818469768   -1.7068404389   -0.1769029101
C        0.1297615884   -1.7580841497   -1.1179503500
C       -0.7710057257   -1.1850576653    1.2329678964
C        0.8605715963   -0.4254211837   -1.3715036489
C        0.8162174073    2.2558419405   -2.5810136112
N       -0.5894794182    0.2646702139    1.3186096168
N        2.1471836426    1.9575651936   -3.1297578326
O        0.3810321195    2.2449514061    0.7908529523
O       -0.5082416524    0.0559525237   -3.7622207586
P       -0.1331978919    0.6906843189   -2.4504983302
H        2.1823565898    0.9847459770   -0.3849545653
H        1.8963464999   -0.5048038232    0.5205509203
H       -1.8899807523   -1.1058856112   -0.6087382578
H       -1.4729477430   -2.7265490032   -0.0785668677
H        0.8636389897   -2.4603824364   -0.6993773319
H       -0.1815041278   -2.1699820710   -2.0829735221
H       -1.5994217881   -1.4291754556    1.9027241099
H        0.1136463719   -1.6966812503    1.6340398105
H        1.7221991240   -0.6487732982   -2.0113376136
H        0.9102782349    2.6806970577   -1.5772196744
H        0.2059200775    2.9457916639   -3.1864381711
H       -1.2867031211    0.8128336400    1.8089542660
H        2.7125346280    2.8040302014   -3.1455408128
H        2.0564921784    1.6422515933   -4.0943985143
H       -1.2319659780    1.0914061634   -1.6466075363
27   
torsion grid (60,)
C        0.2844277294    0.9932601866    0.8321467458
C        1.3836464280    0.2985683038    0.0409519615
C       -1.0356915171   -1.7259477829   -0.2481912514
C        0.2240566199   -1.6989990043   -1.1253117919
C       -0.8241665367   -1.2549122914    1.1978646363
C        0.9086580562   -0.3281122261   -1.2887297521
C        0.9175198785    2.2578219805   -2.6637117692
N       -0.6906787737    0.1946845748    1.3560154681
N        2.1023153060    1.8095347200   -3.4066238211
O        0.2576396315    2.2200522529    0.9614977843
O       -0.7022218163    0.1298135943   -3.5353928958
P       -0.1369587840    0.7977742028   -2.3101676069
H        2.1453501344    1.0556195276   -0.1493686554
H        1.8470439747   -0.4876939597    0.6497946334
H       -1.8376875216   -1.1345929728   -0.7044111190
H       -1.3974829886   -2.7605064635   -0.2127905732
H        0.9640480340   -2.3902920323   -0.6992017012
H       -0.0297255228   -2.0780410328   -2.1194616736
H       -1.6834617928   -1.5499890949    1.8053227655
H        0.0494900059   -1.7589288156    1.6312954847
H        1.7950952891   -0.4714880479   -1.9164421540
H        1.2163050103    2.7015584120   -1.7082867016
H        0.2843256836    2.9911458974   -3.1890894197
H       -1.4316590174    0.7020030649    1.8257064857
H        2.7222281745    2.5977217354   -3.5818983837
H        1.8160283946    1.4461815029   -4.3145808640
H       -1.1027452547    1.3295929868   -1.4215695045
27   
torsion grid (75,)
C        0.1830467067    0.9541876612    1.0106674053
C        1.3331763002    0.3640704306    0.2042023524
C       -0.9909654168   -1.7360790866   -0.3350974799
C        0.3148046151   -1.6093500243   -1.1295746919
C       -0.8811849193   -1.3450806434    1.1440826092
C        0.9456623431   -0.2045142427   -1.1802009020
C        1.0437409678    2.2413343730   -2.7832852961
N       -0.8102063577    0.0970658356    1.3868985893
N        2.0007080781    1.6099008562   -3.6997839688
O        0.1377132476    2.1563255488    1.2824511915
O       -0.8580174267    0.2569343471   -3.2935916420
P       -0.1045845762    0.9398539968   -2.1827889123
H        2.0598287212    1.1711505631    0.0966928357
H        1.8192558376   -0.4339119000    0.7798007170
H       -1.7833771819   -1.1456802707   -0.8081661305
H       -1.3130493224   -2.7833041235   -0.3818729974
H        1.0610565979   -2.2917727572   -0.6998293711
H        0.1312588687   -1.9397972067   -2.1555289022
H       -1.7645693225   -1.7009996362    1.6801154686
H       -0.0172213976   -1.8455765799    1.6014365780
H        1.8647807771   -0.2806940263   -1.7726735710
H        1.5727736285    2.6666977284   -1.9230882826
H        0.4273759999    3.0410181154   -3.2249495220
H       -1.5626589557    0.5406225752    1.9006644126
H        2.6484073334    2.3055729243   -4.0641638457
H        1.4970320116    1.2199229954   -4.4954894703
H       -0.9090883329    1.6379317648   -1.2515608467
27   
torsion grid (90,)
C        0.0865792785    0.9117627944    1.1534684847
C        1.2852914811    0.4240319870    0.3475416886
C       -0.9328870467   -1.7326294943   -0.4218733253
C        0.4022316006   -1.5075359327   -1.1404899366
C       -0.9101494344   -1.4219492580    1.0786309330
C        0.9791000277   -0.0795537853   -1.0820352081
C        1.1320391671    2.1985788226   -2.9066362396
N       -0.9050713134    0.0070384045    1.3997291481
N        1.8662327412    1.3885511377   -3.8852747936
O        0.0056306767    2.0801639553    1.5395492002
O       -1.0224706161    0.4320113492   -3.0221849374
P       -0.0697331320    1.0947467336   -2.0618408771
H        1.9742091111    1.2705357788    0.3163571119
H        1.7916006272   -0.3820551884    0.8942053085
H       -1.7218230638   -1.1472247166   -0.9046329829
H       -1.2047972629   -2.7885473395   -0.5405002763
H        1.1574155442   -2.1830303219   -0.7149406848
H        0.2803528757   -1.7860331835   -2.1906351171
H       -1.8069477089   -1.8353112449    1.5469620516
H       -0.0531885521   -1.9177736683    1.5546862286
H        1.9262182041   -0.0992363896   -1.6333060382
H        1.8267289701    2.5998611757   -2.1590127983
H        0.5654768232    3.0453213088   -3.3267507222
H       -1.6779799746    0.3851760165    1.9351164879
H        2.5309360936    1.9674871059   -4.3942773697
H        1.2101055262    1.0086630539   -4.5664730897
H       -0.6694018186    1.9527801175   -1.1100159193
27   
torsion grid (105,)
C       -0.0059815080    0.8682808393    1.2592454589
C        1.2431057284    0.4652868954    0.4826244382
C       -0.8701465617   -1.7082827860   -0.5105948895
C        0.4844561255   -1.3969419831   -1.1574736740
C       -0.9177909560   -1.4864548857    1.0044797505
C        1.0177182735    0.0398020259   -0.9868343131
C        1.1873059965    2.1357533417   -3.0194694798
N       -0.9756805401   -0.0795124998    1.4075023190
N        1.7062180508    1.1643959390   -3.9889514838
O       -0.1411703349    2.0086967310    1.7090303440
O       -1.1532384370    0.6550931854   -2.7265550746
P       -0.0139545837    1.2545584835   -1.9440478346
H        1.9042153449    1.3329200204    0.5322927940
H        1.7505288437   -0.3566359591    1.0043245442
H       -1.6556883758   -1.1197542891   -0.9926276204
H       -1.0958450934   -2.7650297506   -0.6995243750
H        1.2445883677   -2.0744432168   -0.7436388484
H        0.4167996902   -1.6151427912   -2.2268232780
H       -1.8179578121   -1.9554746756    1.4096680943
H       -0.0642876419   -1.9805196571    1.4888708195
H        1.9922382056    0.0660207536   -1.4869240857
H        2.0066455327    2.5115808698   -2.3945579345
H        0.6698542007    3.0057513591   -3.4553739058
H       -1.7876196788    0.2442053522    1.9202518403
H        2.3656420426    1.6131119965   -4.6213118945
H        0.9355117048    0.8116115651   -4.5549298989
H       -0.3797677594    2.2469523546   -1.0032854855
27   
torsion grid (120,)
C       -0.1112723360    0.8255937184    1.3154426020
C        1.1993573153    0.4933538054    0.6093370558
C       -0.8053565843   -1.6613858216   -0.5892560873
C        0.5624409734   -1.2826960636   -1.1719524504
C       -0.8965308894   -1.5536089550    0.9373614589
C        1.0641192177    0.1491351108   -0.8924391712
C        1.2250219845    2.0525501152   -3.1142642765
N       -1.0161914640   -0.1857673193    1.4451955082
N        1.5127793514    0.9545371138   -4.0450226954
O       -0.3433220705    1.9630908176    1.7322734791
O       -1.2235401140    0.9193121243   -2.4160831597
P        0.0748325942    1.4117667511   -1.8328683901
H        1.8331325731    1.3720777919    0.7431996653
H        1.6934804643   -0.3475162151    1.1125203925
H       -1.5866144657   -1.0493640914   -1.0472450831
H       -1.0041654779   -2.7054463837   -0.8614180988
H        1.3218433444   -1.9707159146   -0.7741570571
H        0.5409460778   -1.4363675273   -2.2545566876
H       -1.7853448412   -2.0855013837    1.2861419496
H       -0.0356555472   -2.0485293128    1.4069511533
H        2.0678454004    0.2106674946   -1.3280099692
H        2.1505995584    2.3757497525   -2.6230470476
H        0.7552611152    2.9412584090   -3.5666893969
H       -1.8979207277    0.1041402544    1.8519278348
H        2.1388130824    1.2710717309   -4.7827413264
H        0.6452968118    0.6604663602   -4.4919922326
H       -0.0341565218    2.5079568564   -0.9432416426
27   
torsion grid (135,)
C       -0.2120902596    0.7979128355    1.3342274238
C        1.1601321434    0.5086067669    0.7340855081
C       -0.7139402389   -1.6176418395   -0.6789727792
C        0.6805328041   -1.1928193051   -1.1616853182
C       -0.8966112239   -1.5848206826    0.8439747547
C        1.1402315701    0.2329280348   -0.7878079785
C        1.2376328526    1.9454706994   -3.1789936206
N       -1.0837663720   -0.2481303257    1.4112595428
N        1.2514198276    0.7855968084   -4.0793968477
O       -0.5144162178    1.9306243827    1.7158521778
O       -1.2122902510    1.1664160347   -2.1058613426
P        0.1973714510    1.5291638793   -1.7217732615
H        1.7688199709    1.3875891742    0.9536569015
H        1.6231821292   -0.3503049173    1.2355506414
H       -1.4781943640   -0.9937452016   -1.1489590398
H       -0.8769728040   -2.6504343284   -1.0116756839
H        1.4246068970   -1.8863227202   -0.7445985697
H        0.7344797445   -1.2988779056   -2.2489464793
H       -1.7870179233   -2.1573944743    1.1160674577
H       -0.0501371282   -2.0779885520    1.3401546090
H        2.1732093447    0.3311990027   -1.1432052294
H        2.2557534280    2.1619180716   -2.8349165152
H        0.8262348008    2.8709867474   -3.6150096249
H       -2.0184291274    0.0253725369    1.6922435678
H        1.7808563118    1.0012778635   -4.9220351822
H        0.2958146655    0.5822842317   -4.3707911446
H        0.3392867936    2.6869624012   -0.9170776405
27   
torsion grid (150,)
C        0.6926866106    0.9602622040    0.9284696787
C        0.4864718995    0.8670357214   -0.5788255289
C       -1.4983091147   -1.3125011052    0.5748317081
C       -1.0082686092   -1.2314933148   -0.8771548991
C       -1.6385245502    0.0453395557    1.2768363427
C        0.3805871706   -0.5937151731   -1.0740272572
C        1.5420962375   -2.3514682513   -3.1774736366
N       -0.3719123716    0.6257855038    1.7186480069
N        1.8671978741   -2.5790914413   -4.5874493753
O        1.7713373383    1.3083907866    1.4093751374
O       -0.3013743565   -0.3224951832   -3.8185581690
P        0.8071445294   -0.6836007958   -2.8684333155
H       -0.4048203527    1.4233908208   -0.8902377029
H        1.3563572874    1.3634349236   -1.0128370424
H       -2.4830568118   -1.7952746871    0.5677799770
H       -0.8346645854   -1.9506609586    1.1709983237
H       -1.0030062205   -2.2454461317   -1.2941120423
H       -1.7310135717   -0.6657347697   -1.4756460863
H       -2.1678301815    0.7509711099    0.6240781876
H       -2.2546581308   -0.0687741781    2.1721802216
H        1.1446156017   -1.1902802515   -0.5543095072
H        0.8252763554   -3.1145124880   -2.8536408579
H        2.4425032301   -2.4715028170   -2.5639744339
H       -0.1662995435    0.6403356342    2.7108388842
H        2.5954345701   -1.9347308840   -4.8926177833
H        1.0461429500   -2.3781792395   -5.1585411023
H        1.9564036509    0.1529915365   -2.9531133206
27   
torsion grid (165,)
C        0.6248111635    1.0519541576    0.9146046431
C        0.4536068119    0.8932599049   -0.5909918941
C       -1.4135427088   -1.3543824586    0.6080569137
C       -0.8939889340   -1.3026617445   -0.8357226130
C       -1.6558499607    0.0183050796    1.2509608755
C        0.4582221550   -0.5893465103   -1.0334109027
C        1.3663039463   -2.4003274506   -3.2394851742
N       -0.4392207118    0.6943548694    1.6962121273
N        1.7604148834   -2.5558212993   -4.6423261200
O        1.6743676133    1.4704506469    1.4034173361
O       -0.0903480384   -0.0550223613   -3.7574731048
P        0.9161983023   -0.6583227694   -2.8168054509
H       -0.4663967799    1.3720861137   -0.9422307442
H        1.2948335794    1.4337081522   -1.0299212759
H       -2.3653235146   -1.8992896839    0.5997734620
H       -0.7253373889   -1.9247123816    1.2437907658
H       -0.8186874472   -2.3321307063   -1.2041452497
H       -1.6377397037   -0.8047676214   -1.4688519470
H       -2.2122383580    0.6629849487    0.5590105063
H       -2.2853935659   -0.1001466313    2.1363914548
H        1.2525115246   -1.1203088857   -0.4889805668
H        0.4999450624   -3.0417461654   -3.0475922639
H        2.1771526361   -2.7426777611   -2.5859173487
H       -0.2537156840    0.7501852734    2.6909352010
H        2.6071833932   -2.0228462865   -4.8361741716
H        1.0307555513   -2.1694686343   -5.2413519637
H        2.1919930787   -0.0248336685   -2.8186880874
27   
torsion grid (180,)
C        0.5545270007    1.1332382813    0.8965661607
C        0.4245713933    0.9122303374   -0.6047818049
C       -1.3270075159   -1.3926725631    0.6432888222
C       -0.7726498290   -1.3727340593   -0.7890338784
C       -1.6699962630   -0.0128475580    1.2217117542
C        0.5354493510   -0.5818228218   -0.9938477209
C        1.1761627397   -2.4042333566   -3.3028510101
N       -0.5084769002    0.7518376597    1.6690257825
N        1.6561179411   -2.5354737700   -4.6814212832
O        1.5705961837    1.6211573798    1.3914374678
O        0.1562636521    0.1707956536   -3.6923380985
P        1.0252710024   -0.6411774574   -2.7709680115
H       -0.5142426830    1.3161841596   -0.9958222612
H        1.2369535167    1.4914474940   -1.0488388321
H       -2.2423723056   -1.9968570618    0.6357510786
H       -0.6217705229   -1.8919223488    1.3188598012
H       -0.6198357776   -2.4120160073   -1.1001188002
H       -1.5348732230   -0.9566236981   -1.4595605722
H       -2.2439272490    0.5689992894    0.4896810296
H       -2.3162925172   -0.1343154840    2.0946047367
H        1.3535053112   -1.0455589721   -0.4248822074
H        0.1862423467   -2.8657178087   -3.2345250354
H        1.8411442309   -2.9515273670   -2.6241501829
H       -0.3481028370    0.8497117543    2.6648883524
H        2.6009355881   -2.1636457858   -4.7686254114
H        1.0645315556   -1.9784612415   -5.2979366300
H        2.3877927157   -0.2295185212   -2.7130288386
