30   
torsion grid (-165,)
C       -2.1425121290   -3.2834911690   -1.5249348655
C        5.8128474791    1.0454017234    0.1115522069
C       -1.4425782695   -3.8057774644   -0.4336230553
C       -1.8076800270   -2.0167595357   -2.0174620518
C        5.3520060245    0.8651130597   -1.2000839646
C        4.9774159830    0.6856543564    1.1706553843
C       -0.4129558113   -3.0659409170    0.1581386679
C       -0.7841317378   -1.2778556934   -1.4193314044
C        4.0812925458    0.3506056566   -1.4422195216
C        3.7031993188    0.1560412120    0.9394273672
C       -0.0739480118   -1.7959539857   -0.3242682325
C        3.2297404737   -0.0128187353   -0.3760734126
C        0.4002692908    0.2069049078    1.1009931979
C        1.0218497329   -0.9827970717    0.3425968771
N        1.9617796445   -0.5195415520   -0.6812170569
H       -2.9404198910   -3.8575094591   -1.9889473590
H        6.8013954570    1.4545062780    0.2996241126
H       -1.6929437079   -4.7900504425   -0.0460244872
H       -2.3474501659   -1.6035464267   -2.8659209112
H        5.9855024392    1.1351684409   -2.0416473905
H        5.3186337142    0.8071038358    2.1960985969
H        0.1336445843   -3.4815115272    1.0020079689
H       -0.5329847019   -0.2921370473   -1.8025453637
H        3.7280610799    0.2310802657   -2.4646975234
H        3.0946002878   -0.1361058122    1.7874981684
H       -0.2655889441   -0.1586240677    1.8892232417
H       -0.1847877079    0.8232785825    0.4129599689
H        1.1625814516    0.8429459114    1.5558658783
H        1.5334828494   -1.6341679290    1.0678810265
H        1.9389812908   -1.0688198177   -1.5312576854
30   
torsion grid (-150,)
C       -1.9826058087   -3.3855225645   -1.5496510133
C        5.8721796961    0.7774643556    0.1020828141
C       -1.1639466328   -3.8809322972   -0.5307978932
C       -1.8514059971   -2.0518793587   -1.9537934676
C        5.3991129062    0.6149539437   -1.2074507826
C        4.9870280493    0.5784946113    1.1633530288
C       -0.2185798876   -3.0477947686    0.0772510355
C       -0.9119411016   -1.2207356644   -1.3389260338
C        4.0726172480    0.2664903535   -1.4462413341
C        3.6527290204    0.2242330336    0.9365738552
C       -0.0828575282   -1.7108466365   -0.3164497482
C        3.1721598503    0.0632254179   -0.3776418880
C        0.2496034918    0.3249087991    1.1365389187
C        0.9368155774   -0.8063668781    0.3510500244
N        1.8433716779   -0.2613880471   -0.6714316897
H       -2.7158721756   -4.0315622168   -2.0254422973
H        6.9067711877    1.0519635493    0.2869170028
H       -1.2570267140   -4.9159091444   -0.2117011932
H       -2.4847762557   -1.6588484298   -2.7451678855
H        6.0697432341    0.7621088483   -2.0506893188
H        5.3328537991    0.6969098999    2.1875968666
H        0.4212939756   -3.4417783323    0.8638177346
H       -0.8223563535   -0.1839907711   -1.6540717135
H        3.7170445109    0.1499929209   -2.4684843544
H        2.9972245622    0.0768377850    1.7873397535
H       -0.3753707187   -0.0902449294    1.9340454085
H       -0.3849899221    0.9177193565    0.4720683201
H        0.9854149880    0.9985934677    1.5831738833
H        1.5121408001   -1.4211549236    1.0574784016
H        1.7458809784   -0.7234530694   -1.5673848211
30   
torsion grid (-135,)
C       -1.7620317527   -3.4533183265   -1.6007442702
C        5.8773648050    0.4929370492    0.0915080853
C       -0.8204447100   -3.8946839762   -0.6663860674
C       -1.8687087884   -2.0861920803   -1.8800637445
C        5.3719120275    0.3534761790   -1.2078345425
C        4.9852795440    0.4545215381    1.1661620148
C        0.0098857309   -2.9741120827   -0.0184625582
C       -1.0424993638   -1.1691953008   -1.2252050838
C        4.0075298507    0.1750026569   -1.4253555732
C        3.6133952014    0.2809059327    0.9603151353
C       -0.0914536887   -1.6029146525   -0.2868663355
C        3.1015935022    0.1328725463   -0.3441955388
C        0.0657756642    0.4717211952    1.1760736183
C        0.8300596534   -0.6115107380    0.4005102411
N        1.7335997685   -0.0080888013   -0.6008431265
H       -2.4073664135   -4.1668621102   -2.1065237604
H        6.9417656023    0.6297952538    0.2594933996
H       -0.7297553730   -4.9547308240   -0.4433375839
H       -2.5990497578   -1.7345024843   -2.6044984077
H        6.0468996735    0.3780803118   -2.0600291549
H        5.3554980050    0.5663181237    2.1825871343
H        0.7462469456   -3.3249102556    0.7012071305
H       -1.1405111492   -0.1089256102   -1.4453916164
H        3.6297286560    0.0632547698   -2.4402300762
H        2.9466603922    0.2765113200    1.8162663245
H       -0.5686159808    0.0201902703    1.9461718561
H       -0.5674446236    1.0577735268    0.5042009281
H        0.7652726277    1.1619067171    1.6566015883
H        1.4383299441   -1.1793324197    1.1149361106
H        1.5568845323   -0.3593873120   -1.5345506042
30   
torsion grid (-120,)
C       -1.6246190837   -3.6580540855   -0.8492314000
C        5.9400293212    0.2185795547   -0.2617807258
C       -1.4962830331   -3.3699603701    0.5149238901
C       -0.9267386595   -2.8859610333   -1.7817479392
C        5.2582245084    1.2996030998   -0.8325644034
C        5.2008130961   -0.8699124354    0.2131438437
C       -0.6845183529   -2.3133627256    0.9329199650
C       -0.1111578128   -1.8300074262   -1.3578467452
C        3.8654158843    1.2989442636   -0.9129316468
C        3.8071422532   -0.8874116409    0.1248266382
C        0.0118974211   -1.5264242795    0.0020459685
C        3.1161727030    0.2072192774   -0.4315653528
C       -0.0154072678    0.7536939581    1.0819468727
C        0.8677727984   -0.3610922653    0.4912033354
N        1.7213661900    0.1975434348   -0.5648393589
H       -2.2548778224   -4.4803320881   -1.1783313433
H        7.0241813880    0.2226890544   -0.1940847129
H       -2.0244292576   -3.9711433539    1.2509771383
H       -1.0101764699   -3.1092944275   -2.8426570246
H        5.8125699667    2.1559221543   -1.2091479417
H        5.7133252047   -1.7258569471    0.6457686716
H       -0.5861941456   -2.1042546353    1.9968542532
H        0.4518626484   -1.2442957288   -2.0776217833
H        3.3470691386    2.1522139470   -1.3475036759
H        3.2576050065   -1.7626384248    0.4585983239
H       -0.6619675277    0.3685629348    1.8747172208
H       -0.6645452154    1.1759294630    0.3057624968
H        0.6073115819    1.5528139568    1.4980311484
H        1.5180520029   -0.7262322256    1.2925335282
H        1.3694984142    1.0843229089   -0.9080760583
30   
torsion grid (-105,)
C       -1.3308379994   -3.7190757574   -0.8214966918
C        5.8519954877   -0.0377801775   -0.3619688212
C       -1.2199953866   -3.4424250055    0.5464026463
C       -0.7324341157   -2.8598861164   -1.7475732539
C        5.2718623298    1.1432893567   -0.8406362324
C        5.0161890931   -1.0661511358    0.0847066617
C       -0.5221562877   -2.3109427901    0.9749668721
C       -0.0327986903   -1.7280103886   -1.3139114856
C        3.8859967347    1.2990032490   -0.8626338482
C        3.6264235185   -0.9262499075    0.0591459684
C        0.0713347039   -1.4381584315    0.0504576284
C        3.0417323933    0.2670709116   -0.4080247563
C       -0.2278119865    0.8554113871    1.0312112200
C        0.7931078201   -0.1901451463    0.5509258290
N        1.6498257894    0.4150608456   -0.4761838815
H       -1.8703214097   -4.6002715812   -1.1593658241
H        6.9318607456   -0.1542770812   -0.3421298059
H       -1.6714049061   -4.1100224813    1.2762618309
H       -0.8031121128   -3.0743643472   -2.8112258746
H        5.9033186979    1.9553003581   -1.1931061197
H        5.4470059841   -1.9959584475    0.4484624322
H       -0.4327557983   -2.1081933223    2.0411693981
H        0.4528060642   -1.0690647367   -2.0269441808
H        3.4487508101    2.2262397184   -1.2297463676
H        2.9953523655   -1.7516570744    0.3743703365
H       -0.8990996565    0.4281643461    1.7802204465
H       -0.8447962146    1.1976687401    0.1924447701
H        0.2818870161    1.7180369946    1.4748439992
H        1.4151455156   -0.4708999627    1.4101302718
H        1.3830008347    1.3705011445   -0.6834364609
30   
torsion grid (-90,)
C       -1.0374546616   -3.7335639233   -0.8260359820
C        5.7409328649   -0.2666392766   -0.4725479599
C       -0.9228238371   -3.4932341158    0.5479489541
C       -0.5604115115   -2.7821792587   -1.7332670606
C        5.2536316057    0.9734517802   -0.9045927407
C        4.8356280412   -1.2148090356    0.0123343897
C       -0.3398057799   -2.3078909154    1.0036028475
C        0.0220595520   -1.5968136151   -1.2729434785
C        3.8905489262    1.2597000045   -0.8475802088
C        3.4662355416   -0.9411386554    0.0716952278
C        0.1318499801   -1.3462238574    0.0991584652
C        2.9753673009    0.3078110150   -0.3551195279
C       -0.4154300757    0.9373859125    0.9788351964
C        0.7173040298   -0.0396339842    0.6255316323
N        1.6055802086    0.6031263143   -0.3448441092
H       -1.4854857444   -4.6568814947   -1.1844157629
H        6.8035867191   -0.4878913237   -0.5161691997
H       -1.2808020145   -4.2307934340    1.2620582375
H       -0.6342966805   -2.9668727572   -2.8022537817
H        5.9399733322    1.7261163447   -1.2851651635
H        5.1937692984   -2.1861764266    0.3450096364
H       -0.2443003795   -2.1316065132    2.0740129520
H        0.4150201297   -0.8645446663   -1.9717163576
H        3.5245418934    2.2282194226   -1.1848489987
H        2.7812128114   -1.7045232039    0.4251078252
H       -1.1167312014    0.4742860417    1.6770271593
H       -0.9737282032    1.2131219186    0.0775590985
H       -0.0159310781    1.8464714930    1.4434858760
H        1.2753695155   -0.2612362490    1.5471752091
H        1.4285158873    1.5964532144   -0.4362282433
30   
torsion grid (-75,)
C       -0.7894625384   -3.7218175840   -0.8578858348
C        5.6116624810   -0.4484788594   -0.6083869461
C       -0.7368046502   -3.5068596653    0.5236576475
C       -0.3598002986   -2.7151147281   -1.7290528157
C        5.1788736734    0.8214578522   -1.0125169319
C        4.6853413744   -1.3228748893   -0.0350874847
C       -0.2589652128   -2.2922660268    1.0238112485
C        0.1149381480   -1.5008331426   -1.2248962987
C        3.8494157826    1.2033767279   -0.8477631214
C        3.3487532741   -0.9503730922    0.1393703532
C        0.1674805150   -1.2785891246    0.1559305634
C        2.9107807187    0.3241638110   -0.2682371954
C       -0.5732893475    0.9809877733    0.9544820012
C        0.6318484427    0.0568390834    0.7266607005
N        1.5788530621    0.7380125519   -0.1503724361
H       -1.1535742692   -4.6677727117   -1.2506124540
H        6.6479586247   -0.7469397981   -0.7392250838
H       -1.0606862342   -4.2857874770    1.2095281734
H       -0.3868638729   -2.8792975386   -2.8035347963
H        5.8815920468    1.5201547681   -1.4602518695
H        5.0001206847   -2.3137296102    0.2837532781
H       -0.2088706117   -2.1343606798    2.1000608280
H        0.4697605575   -0.7243068176   -1.8960058982
H        3.5244240160    2.1907653906   -1.1719935016
H        2.6524394752   -1.6577548091    0.5740156188
H       -1.3087364524    0.4940728559    1.5992662831
H       -1.0589929847    1.2134647582    0.0011821191
H       -0.2637895528    1.9174683777    1.4340153513
H        1.0985224302   -0.1428415011    1.7052311252
H        1.4741334009    1.7449929281   -0.1524668319
30   
torsion grid (-60,)
C       -0.6805052079   -3.5567847670   -0.9857280566
C        5.5811872632   -0.6079801329   -0.8006733977
C       -0.7746119024   -3.3470317058    0.3946402108
C       -0.1153712167   -2.5667849110   -1.7953323128
C        5.0949770332    0.5427697355   -1.4346136188
C        4.7565521100   -1.2706606685    0.1123973403
C       -0.3097126390   -2.1534896260    0.9528430702
C        0.3471580639   -1.3738595806   -1.2309652015
C        3.8164548243    1.0213055088   -1.1559486835
C        3.4696240944   -0.8052293142    0.3954648975
C        0.2498256686   -1.1523552356    0.1471755921
C        2.9817406584    0.3565416112   -0.2335014876
C       -0.5016772052    1.0972118845    0.9896159441
C        0.6995312917    0.1617127371    0.7859875412
N        1.7229526039    0.8872357617    0.0497437973
H       -1.0350848025   -4.4863367302   -1.4235588033
H        6.5780390958   -0.9804355299   -1.0186841564
H       -1.2035488702   -4.1141678726    1.0346349486
H       -0.0246586334   -2.7271503774   -2.8668084477
H        5.7171361819    1.0746094783   -2.1505472103
H        5.1107330980   -2.1714046546    0.6081222690
H       -0.3779354028   -2.0000812496    2.0289473609
H        0.8084545978   -0.6225382773   -1.8656338762
H        3.4549349718    1.9229864940   -1.6478329476
H        2.8456996250   -1.3574125721    1.0892468263
H       -1.2766555314    0.6030750366    1.5805258587
H       -0.9456905263    1.3658728729    0.0236959927
H       -0.1915991426    2.0123315733    1.5038125387
H        1.1082424244   -0.0718879978    1.7772225606
H        1.3685714600    1.5277333549   -0.6494444775
30   
torsion grid (-45,)
C       -0.4443773145   -3.5298190580   -1.0234971606
C        5.4203842138   -0.7946362856   -0.8836903895
C       -0.5140910917   -3.3833418125    0.3655878355
C       -0.0014350987   -2.4588263757   -1.8071918598
C        4.9561900088    0.3682372388   -1.5098288500
C        4.6363453764   -1.3768802656    0.1171282750
C       -0.1437705621   -2.1740769955    0.9617090629
C        0.3646030768   -1.2517829316   -1.2065812636
C        3.7350378383    0.9343674434   -1.1451063089
C        3.4126945284   -0.8181920056    0.4919497094
C        0.2957321382   -1.0963763469    0.1834852589
C        2.9428846449    0.3501972774   -0.1373133257
C       -0.5841873982    1.1524860039    0.9052947855
C        0.6406288011    0.2301306508    0.8544107745
N        1.7467085173    0.9702727339    0.2443864257
H       -0.7238058634   -4.4710984029   -1.4897961391
H        6.3695512141   -1.2374873298   -1.1718894615
H       -0.8493755607   -4.2119149746    0.9844994029
H        0.0678364269   -2.5677071011   -2.8866674709
H        5.5471189597    0.8385062585   -2.2921692551
H        4.9761867680   -2.2827836658    0.6133952515
H       -0.1905678581   -2.0695248139    2.0447100697
H        0.7296269685   -0.4342647555   -1.8227513774
H        3.3872401826    1.8395586320   -1.6408139769
H        2.8222901265   -1.2973182884    1.2651482928
H       -1.4116694030    0.6583006239    1.4200691896
H       -0.9237139896    1.3971690914   -0.1081953383
H       -0.3432485665    2.0814165421    1.4323985562
H        0.9253458148    0.0049112104    1.8906713725
H        1.4318078993    1.6543969794   -0.4342763746
30   
torsion grid (-30,)
C       -0.2428551799   -3.5226016612   -1.0030647611
C        5.2944567856   -0.8944887668   -0.9974356010
C       -0.3327664489   -3.4001436266    0.3864833382
C        0.1364512602   -2.4151777003   -1.7707178076
C        4.8521437840    0.3159551161   -1.5426826448
C        4.5529032685   -1.4797582447    0.0345647515
C       -0.0419242139   -2.1774599963    1.0007819768
C        0.4206251805   -1.1965117258   -1.1521931259
C        3.6867159735    0.9221834339   -1.0720511928
C        3.3916887306   -0.8760684063    0.5190794595
C        0.3361701470   -1.0652377080    0.2407243804
C        2.9363430718    0.3347560526   -0.0356742506
C       -0.6047364568    1.2068914195    0.8008953121
C        0.6022015341    0.2691228398    0.9250860771
N        1.7991192861    0.9918693283    0.4580092754
H       -0.4589415415   -4.4732751886   -1.4837534195
H        6.1971834640   -1.3709809257   -1.3691949467
H       -0.6211677050   -4.2557709755    0.9920619942
H        0.2190039387   -2.5053432742   -2.8509479999
H        5.4121219196    0.7898425271   -2.3453756805
H        4.8811821672   -2.4193489905    0.4724800914
H       -0.1017646718   -2.0904027150    2.0844276016
H        0.7349458734   -0.3481165857   -1.7546749046
H        3.3490676511    1.8599680714   -1.5111678227
H        2.8369148468   -1.3473407180    1.3232259996
H       -1.4943073837    0.7397402216    1.2306188802
H       -0.8174189175    1.4254225989   -0.2520440084
H       -0.4155793876    2.1486908785    1.3275553456
H        0.7400152658    0.0545556621    1.9934678798
H        1.5488931694    1.7785052583   -0.1311911907
30   
torsion grid (-15,)
C       -0.1503436489   -3.5447394939   -0.9299478034
C        5.1870729727   -0.8952966051   -1.0925113918
C       -0.2922046380   -3.4088517073    0.4536199841
C        0.2235643867   -2.4354623656   -1.6981716464
C        4.7651108476    0.3702920043   -1.5130724712
C        4.4684932469   -1.5455309981   -0.0824899720
C       -0.0564692322   -2.1709642481    1.0620979129
C        0.4519177246   -1.2030548983   -1.0852749548
C        3.6370209263    0.9674634989   -0.9471521857
C        3.3511296487   -0.9486988770    0.5013370038
C        0.3182122418   -1.0570738741    0.3033146163
C        2.9101155226    0.3161695789    0.0672795347
C       -0.6166650593    1.2556958069    0.6630539032
C        0.5313512385    0.2881251487    0.9784290344
N        1.8147716047    0.9610060016    0.6650607120
H       -0.3237772668   -4.5064212699   -1.4060432655
H        6.0587133064   -1.3641490008   -1.5405106442
H       -0.5789554069   -4.2646508863    1.0596990447
H        0.3454844343   -2.5351246517   -2.7737819728
H        5.3090195715    0.8946291541   -2.2951971658
H        4.7841015680   -2.5273137755    0.2622904753
H       -0.1561299421   -2.0733554697    2.1415986257
H        0.7627647896   -0.3536314149   -1.6877231813
H        3.3102210618    1.9463623435   -1.2955619407
H        2.8171959161   -1.4638391441    1.2925435396
H       -1.5707769149    0.8306333934    0.9855150135
H       -0.6785259654    1.4475469295   -0.4139027242
H       -0.4712009277    2.2088730191    1.1844408534
H        0.5102141320    0.1018430010    2.0606239368
H        1.6477585554    1.8570872435    0.2207903665
30   
torsion grid (0,)
C       -0.0980226535   -3.5800244437   -0.8608616916
C        5.1194643425   -0.8790990946   -1.2160141369
C       -0.2760880619   -3.4153519790    0.5151695648
C        0.2782065073   -2.4825293946   -1.6448359794
C        4.7262599752    0.4326080549   -1.4989081740
C        4.4097890875   -1.6046139925   -0.2512862532
C       -0.0735895332   -2.1606579340    1.1011672504
C        0.4744441987   -1.2336299404   -1.0554135382
C        3.6302041966    1.0003952677   -0.8448417092
C        3.3297989149   -1.0362622583    0.4232152224
C        0.3045068369   -1.0587096128    0.3265097017
C        2.9123884162    0.2754309057    0.1249983700
C       -0.5514115473    1.3052759796    0.4801163208
C        0.4960725101    0.2985007803    0.9781620455
N        1.8533252795    0.8896006066    0.8186436923
H       -0.2468308007   -4.5543438754   -1.3193300105
H        5.9643546224   -1.3259367230   -1.7326765590
H       -0.5666515423   -4.2611208064    1.1333264785
H        0.4279657828   -2.6041858130   -2.7145837715
H        5.2644396601    1.0158113918   -2.2424004682
H        4.7064009549   -2.6228082196   -0.0112019563
H       -0.2019031831   -2.0401239438    2.1750623431
H        0.7894237197   -0.3952060467   -1.6705677141
H        3.3208896099    2.0155553330   -1.0899290586
H        2.8060336167   -1.6070699117    1.1821495349
H       -1.5609201837    0.9367201529    0.6833006482
H       -0.4577338134    1.4667983515   -0.5988823149
H       -0.4331153674    2.2690595600    0.9897389276
H        0.3248887653    0.1577112063    2.0531365062
H        1.7737009130    1.8611715493    0.5387709356
30   
torsion grid (15,)
C       -1.2284866554   -0.9431796345   -2.1991210882
C        4.3733947017    0.4543434325   -2.0779245055
C       -0.2268317371   -1.9216149246   -2.1919110872
C       -1.4858648770   -0.2183914424   -1.0340025396
C        4.8597323896   -0.7846216987   -1.6488809043
C        3.2704908332    1.0126607484   -1.4210254996
C        0.5054219611   -2.1623355829   -1.0304996850
C       -0.7457430446   -0.4645445443    0.1289771816
C        4.2415002404   -1.4608063548   -0.5950866402
C        2.6626398884    0.3540974464   -0.3525184741
C        0.2625484654   -1.4348120524    0.1458788514
C        3.1326903497   -0.9043627297    0.0699883865
C        0.6829154322   -0.9616454286    2.6367862344
C        1.1020416865   -1.7389320590    1.3826859393
N        2.5671495991   -1.5764275703    1.1658431639
H       -1.7996056577   -0.7495000815   -3.1034746750
H        4.8456384552    0.9762953110   -2.9054478602
H       -0.0137183659   -2.4906471290   -3.0932480636
H       -2.2621221543    0.5428342862   -1.0262500852
H        5.7161647123   -1.2368327797   -2.1434344961
H        2.8828120672    1.9785019518   -1.7361306489
H        1.2942500066   -2.9107680289   -1.0404276589
H       -0.9604275980    0.1173055084    1.0194316796
H        4.6168294434   -2.4349965496   -0.2845063454
H        1.8232410787    0.8154311414    0.1553666134
H       -0.3644161046   -1.1488422932    2.8966304128
H        0.8258396482    0.1148463434    2.5013912759
H        1.3080270422   -1.2712588214    3.4785088527
H        0.9541859602   -2.8040197257    1.5995938038
H        3.0572564369   -2.4445237384    1.3440629816
30   
torsion grid (30,)
C       -1.3406130183   -1.0053746141   -2.1849811613
C        4.4783166162    0.5539883799   -1.9304814730
C       -0.3203066647   -1.9641921823   -2.1939741395
C       -1.5784736266   -0.2711110640   -1.0217661097
C        4.9336936268   -0.7251574733   -1.5925601284
C        3.3577093904    1.0653993683   -1.2676177352
C        0.4488112197   -2.1776914276   -1.0508942940
C       -0.8026105444   -0.4903909777    0.1232559782
C        4.2750131710   -1.4788234982   -0.6207529459
C        2.7006835595    0.3248443739   -0.2838969748
C        0.2230391243   -1.4429239203    0.1241342791
C        3.1469884151   -0.9679230596    0.0511839483
C        0.7998473398   -0.8219963858    2.5568974303
C        1.0922890220   -1.7255804129    1.3502285999
N        2.5447005551   -1.7333959079    1.0590445810
H       -1.9391719949   -0.8324679277   -3.0756842632
H        4.9851611961    1.1383497763   -2.6931951110
H       -0.1204779812   -2.5389626879   -3.0947817357
H       -2.3668554834    0.4773363330   -1.0015596733
H        5.8020222931   -1.1458032625   -2.0941246000
H        2.9878473641    2.0577766773   -1.5143597480
H        1.2523377693   -2.9096922129   -1.0764324002
H       -1.0035999830    0.0991535527    1.0118469872
H        4.6337873278   -2.4780290074   -0.3773165546
H        1.8395776551    0.7513479481    0.2166533635
H       -0.2369081855   -0.9252299321    2.8929655813
H        0.9877109626    0.2313552370    2.3290178467
H        1.4590377772   -1.1046997240    3.3813361639
H        0.8641449782   -2.7511279270    1.6638248219
H        2.9337473063   -2.6668418996    1.0968792384
30   
torsion grid (45,)
C       -1.5512750842   -1.0340796469   -2.0227558938
C        4.6990545119    0.6505770287   -1.8054332875
C       -0.4711318700   -1.9174106991   -2.1325169282
C       -1.7475702815   -0.3399683239   -0.8271877056
C        5.1625266692   -0.6255581243   -1.4631040081
C        3.5018569463    1.1012719952   -1.2422489614
C        0.3974752051   -2.0993076094   -1.0562543958
C       -0.8728252468   -0.5274350490    0.2499041088
C        4.4446727603   -1.4280320483   -0.5783136237
C        2.7741433617    0.3066894223   -0.3532657972
C        0.2118870337   -1.4084339550    0.1513363134
C        3.2371810445   -0.9770035114   -0.0046179560
C        1.0455569321   -0.6683156714    2.4823824149
C        1.1739439817   -1.6633255358    1.3172450643
N        2.5774667554   -1.8067151879    0.9052892484
H       -2.2268161947   -0.8858210455   -2.8612911407
H        5.2567421481    1.2757906474   -2.4968467660
H       -0.3008011409   -2.4574034798   -3.0605647394
H       -2.5800836881    0.3525083332   -0.7294075963
H        6.0897236801   -1.0019673024   -1.8887374751
H        3.1188744106    2.0860511680   -1.4994146166
H        1.2465150158   -2.7689197837   -1.1634137725
H       -1.0438102145    0.0310709922    1.1644248523
H        4.8195813836   -2.4175392290   -0.3204198558
H        1.8417676641    0.6828430974    0.0486766880
H        0.0500766358   -0.7129659184    2.9341369567
H        1.2347473133    0.3617233591    2.1691137786
H        1.7797240298   -0.9261647522    3.2494887716
H        0.9102491402   -2.6463944724    1.7254134197
H        2.8976216333   -2.7648329593    0.8729591121
30   
torsion grid (60,)
C       -1.7269271528   -1.0671634842   -1.9062002599
C        4.8634113000    0.6809225420   -1.6624922093
C       -0.6752439357   -1.9723203802   -2.0923723501
C       -1.8253386701   -0.3726075613   -0.6987156958
C        5.4138751298   -0.4848511835   -1.1147494151
C        3.5196734366    0.9678787214   -1.4102737298
C        0.2632533610   -2.1754954518   -1.0804661662
C       -0.8810722473   -0.5790393130    0.3144395087
C        4.6348143068   -1.3408398695   -0.3401059272
C        2.7287664753    0.1204486290   -0.6289227183
C        0.1769513626   -1.4792272065    0.1354747128
C        3.2753702060   -1.0579136259   -0.0823170606
C        1.2104818006   -0.7364464730    2.3800532178
C        1.2066614887   -1.7615109753    1.2308026691
N        2.5453953340   -1.9766297027    0.6762360470
H       -2.4567452438   -0.9031281195   -2.6948806451
H        5.4691877919    1.3477941806   -2.2693538020
H       -0.5826722458   -2.5140801987   -3.0304159873
H       -2.6355332699    0.3351815201   -0.5415917564
H        6.4576526317   -0.7323036427   -1.2933701360
H        3.0704202141    1.8680596707   -1.8232981616
H        1.0926000267   -2.8592369134   -1.2351140556
H       -0.9753597380   -0.0177828579    1.2382550888
H        5.0747737513   -2.2484684062    0.0705295456
H        1.6907110805    0.3764611788   -0.4613828414
H        0.2536543701   -0.7217562427    2.9107766800
H        1.4247192922    0.2733582703    2.0194977230
H        1.9860260764   -1.0067030658    3.1032667720
H        0.9316056602   -2.7308834221    1.6655731039
H        3.1217315960   -2.5920644736    1.2346172711
30   
torsion grid (75,)
C       -1.9271583087   -1.1264275425   -1.8247091022
C        4.9891364216    0.7457256356   -1.4666258331
C       -0.8886946327   -2.0349831788   -2.0613767104
C       -1.9442836483   -0.4047456058   -0.6291599333
C        5.5163976937   -0.4082890956   -0.8749610199
C        3.6111148905    0.9677626507   -1.3901259165
C        0.1171101597   -2.2171859351   -1.1113928066
C       -0.9336690684   -0.5892676466    0.3221547867
C        4.6836413242   -1.3144480948   -0.2201440935
C        2.7658374372    0.0645063858   -0.7405548251
C        0.1095372750   -1.4964873977    0.0931202845
C        3.2927866413   -1.0965793051   -0.1411450469
C        1.3363138174   -0.6737518566    2.2143677179
C        1.2089528976   -1.7536089038    1.1262254623
N        2.4915778596   -2.0689341727    0.4779287371
H       -2.7087397591   -0.9797285775   -2.5657980994
H        5.6377759692    1.4536099591   -1.9748254175
H       -0.8589255062   -2.5966961271   -2.9918170665
H       -2.7419842731    0.3078022412   -0.4340918938
H        6.5850990059   -0.6043263409   -0.9185127352
H        3.1788829813    1.8558120590   -1.8452982752
H        0.9373790201   -2.9016052210   -1.3053911113
H       -0.9654849746   -0.0074782230    1.2376085060
H        5.1095558666   -2.2069124588    0.2362158307
H        1.7004941002    0.2582314735   -0.7162482459
H        0.4244559725   -0.6039634147    2.8144437524
H        1.5487614363    0.3106345340    1.7898851451
H        2.1574424532   -0.9339323659    2.8896242699
H        0.9315675669   -2.6867168573    1.6330791095
H        3.0446946186   -2.7093346951    1.0348903640
30   
torsion grid (90,)
C       -2.2168903611   -1.2864335324   -1.7106855626
C        5.1442533535    0.6813306970   -1.2959331829
C       -1.0683073785   -1.9792591281   -2.1063974897
C       -2.2639243757   -0.7145263429   -0.4360858230
C        5.5900106914   -0.4832275686   -0.6614852118
C        3.7678858960    0.9166186802   -1.3858416647
C        0.0184549512   -2.0999225010   -1.2364204360
C       -1.1735390118   -0.8343817726    0.4316900526
C        4.6772044571   -1.3882205371   -0.1175990555
C        2.8464800784    0.0110061354   -0.8569839252
C       -0.0177386141   -1.5299330813    0.0445142951
C        3.2915978566   -1.1558618984   -0.2051167998
C        1.3703962780   -0.5460505299    1.9880348359
C        1.1606996716   -1.7121549428    1.0056686831
N        2.3891605196   -2.1143546686    0.2909822229
H       -3.0620157713   -1.1896880393   -2.3875076875
H        5.8546767017    1.3891492312   -1.7136151971
H       -1.0151177380   -2.4234983332   -3.0974433556
H       -3.1486902556   -0.1699240449   -0.1154962750
H        6.6550448048   -0.6867551610   -0.5799381831
H        3.4020128174    1.8120372786   -1.8827068910
H        0.9154738039   -2.6255537229   -1.5471015423
H       -1.2347673904   -0.3758497192    1.4140226691
H        5.0379982102   -2.2857478389    0.3827016199
H        1.7835517796    0.1990572699   -0.9637911566
H        0.5221692193   -0.4541324599    2.6714237677
H        1.5007770026    0.4085940606    1.4744279779
H        2.2642401836   -0.7316277514    2.5916262477
H        0.9103309936   -2.5914862780    1.6130085570
H        2.8819429850   -2.8341239264    0.8068903539
30   
torsion grid (105,)
C       -2.4280621192   -1.4278647740   -1.5533104008
C        5.4283971684    0.5490645929   -1.1912526394
C       -1.1800076071   -1.6750002618   -2.1309213652
C       -2.5158018144   -1.2190540922   -0.1719843490
C        5.7281453693   -0.6290059892   -0.4990515655
C        4.0869619515    0.8829255624   -1.4095456437
C       -0.0270954780   -1.7099193695   -1.3382180283
C       -1.3627720448   -1.2481850063    0.6155702151
C        4.7056744924   -1.4488457015   -0.0178170351
C        3.0583468925    0.0590503426   -0.9502858315
C       -0.1038685410   -1.4897758957    0.0422091278
C        3.3547618004   -1.1172851144   -0.2332846721
C        1.3484700335   -0.2025028744    1.7034750137
C        1.1424575705   -1.5163083878    0.9271705346
N        2.3371256595   -1.9891927260    0.1922038963
H       -3.3236936664   -1.4038759143   -2.1688861806
H        6.2241246156    1.1915199897   -1.5576391544
H       -1.1007226382   -1.8461159913   -3.2018243662
H       -3.4821097429   -1.0355105105    0.2914198634
H        6.7638025412   -0.9082355795   -0.3207958171
H        3.8354044249    1.7881232694   -1.9571271555
H        0.9387739139   -1.9247206237   -1.7834857286
H       -1.4492289882   -1.0890237559    1.6884333002
H        4.9522098754   -2.3548546327    0.5337568470
H        2.0254071209    0.3147816121   -1.1631582371
H        0.5007742836   -0.0294599124    2.3715647560
H        1.4324700992    0.6614021018    1.0426759376
H        2.2577579337   -0.2593234992    2.3098634265
H        0.9591511106   -2.2904586510    1.6824666763
H        2.7331785661   -2.8033597161    0.6458140249
30   
torsion grid (120,)
C       -2.5902222591   -1.5891657799   -1.3997646710
C        5.6639964806    0.4652713195   -1.0179606915
C       -1.3686437052   -1.5886657780   -2.0794330591
C       -2.5987312320   -1.5493921320   -0.0005950682
C        5.8240773101   -0.7466675944   -0.3385037511
C        4.3714117633    0.8975024742   -1.3372251507
C       -0.1639689508   -1.5450759194   -1.3686256584
C       -1.3941900887   -1.5008306641    0.7053107727
C        4.7105076703   -1.5010243419    0.0378355355
C        3.2556085921    0.1355286288   -0.9888934438
C       -0.1642987945   -1.4936015810    0.0301791498
C        3.4077100502   -1.0710381137   -0.2772794545
C        1.3084332211   -0.0020904244    1.4493761452
C        1.1357776361   -1.3966966005    0.8247049876
N        2.2971013905   -1.8739583836    0.0381835250
H       -3.5257704956   -1.6284867080   -1.9519514539
H        6.5296297458    1.0575588742   -1.3010771048
H       -1.3517577462   -1.6291573957   -3.1659655698
H       -3.5425755101   -1.5603419107    0.5390571873
H        6.8200222338   -1.1025980099   -0.0860153262
H        4.2296683177    1.8275676150   -1.8825602256
H        0.7863553561   -1.5730917579   -1.8926241194
H       -1.4123350056   -1.4746251498    1.7937263527
H        4.8468111401   -2.4318467522    0.5860481960
H        2.2640947325    0.4588701008   -1.2896546070
H        0.4817710942    0.1816663419    2.1410367084
H        1.2938091542    0.7925964850    0.7019632061
H        2.2489680075    0.0626840802    2.0044538278
H        1.0409946785   -2.0919623411    1.6688877961
H        2.5917833665   -2.7865846115    0.3631375738
30   
torsion grid (135,)
C       -2.1009310462   -2.9532961484   -1.8842335457
C        5.2546166713    1.6008624029   -0.2278409066
C       -1.7779970679   -3.6172139553   -0.6980125239
C       -1.3691164552   -1.8205020130   -2.2614581840
C        4.7084233108    1.1071811154   -1.4171407649
C        4.8384718875    1.0488136295    0.9896168637
C       -0.7299169118   -3.1512141112    0.1044281896
C       -0.3262561272   -1.3573138391   -1.4568377194
C        3.7432324828    0.0981199786   -1.3891258553
C        3.8942884079    0.0221238454    1.0227228760
C        0.0040404055   -2.0170985899   -0.2614054734
C        3.3156559736   -0.4582953484   -0.1683010181
C        0.7436892689   -0.1164696174    1.1794387931
C        1.1283309325   -1.4988857350    0.6230822047
N        2.3959653625   -1.5213011839   -0.1550253304
H       -2.9122589363   -3.3143217111   -2.5109927013
H        5.9974583418    2.3933486569   -0.2491911258
H       -2.3361543249   -4.5008985899   -0.3991361822
H       -1.6143456865   -1.2973081795   -3.1823680485
H        5.0237434259    1.5180586756   -2.3732882763
H        5.2690481636    1.4054152580    1.9223769389
H       -0.4777644027   -3.6771004283    1.0227293942
H        0.2307996436   -0.4724049802   -1.7568219701
H        3.3110630173   -0.2651652835   -2.3201634464
H        3.6226268138   -0.4345509576    1.9699550193
H       -0.2378973418   -0.1885948019    1.6571632185
H        0.6834039859    0.6284971768    0.3808283631
H        1.4576698748    0.2456698926    1.9208373101
H        1.2291532488   -2.1857936214    1.4726202094
H        2.2247480638   -1.8642392210   -1.0927459183
30   
torsion grid (150,)
C       -2.1620411528   -3.1162885867   -1.7556301045
C        5.4376049789    1.4822000263   -0.0423501279
C       -1.6919059881   -3.7376498378   -0.5956923452
C       -1.5687517567   -1.9246065496   -2.1886184610
C        4.9007108155    1.1469710969   -1.2899763320
C        4.9194599407    0.8681447547    1.1040461143
C       -0.6339219135   -3.1710932083    0.1240828978
C       -0.5166027605   -1.3605083794   -1.4638499409
C        3.8512386219    0.2314448346   -1.3894715870
C        3.8849439586   -0.0633714640    1.0109204855
C       -0.0366455021   -1.9771852411   -0.2967686158
C        3.3232441449   -0.3870646655   -0.2400747234
C        0.6845106017    0.0343038557    1.0072786979
C        1.1034371858   -1.3584813959    0.4971949124
N        2.3183764574   -1.3593401355   -0.3553374219
H       -2.9817773906   -3.5551344325   -2.3185020986
H        6.2475340061    2.2020736430    0.0347473727
H       -2.1431094805   -4.6655564503   -0.2534664846
H       -1.9293443360   -1.4332978934   -3.0888745069
H        5.2916972478    1.6095221389   -2.1930979224
H        5.3351610330    1.1041748313    2.0808300102
H       -0.2658796476   -3.6645929358    1.0208106126
H       -0.0738142251   -0.4278048453   -1.8063829002
H        3.4321018493   -0.0096541094   -2.3650919981
H        3.5238037207   -0.5626155275    1.9056912329
H       -0.2495455594   -0.0538319194    1.5706068316
H        0.5192033277    0.7245120655    0.1746971812
H        1.4391090114    0.4767657986    1.6597591179
H        1.2917823139   -1.9963227142    1.3691418309
H        2.0760639503   -1.5258834909   -1.3250407127
30   
torsion grid (165,)
C       -2.1584219400   -3.2832494655   -1.6497232675
C        5.5876177140    1.3199658490    0.1040313393
C       -1.5302759346   -3.8660755999   -0.5455509199
C       -1.7452352692   -2.0219251279   -2.0930043338
C        5.0770582199    1.1167225636   -1.1831676343
C        4.9545104474    0.6991600469    1.1864628464
C       -0.4934410650   -3.1912170842    0.1075269183
C       -0.7142558177   -1.3491229369   -1.4325446721
C        3.9485445080    0.3208701901   -1.3827845095
C        3.8327665246   -0.1091793260    0.9955014661
C       -0.0754169014   -1.9263839322   -0.3233984364
C        3.3054916163   -0.3047547357   -0.2966232697
C        0.5898866428    0.1835144552    0.8830557964
C        1.0546221710   -1.2013688264    0.3905918252
N        2.2180089666   -1.1583453849   -0.5213261722
H       -2.9628780396   -3.8057346374   -2.1608347397
H        6.4615144153    1.9462128070    0.2592978209
H       -1.8425383415   -4.8466985883   -0.1954599584
H       -2.2298942972   -1.5603737983   -2.9496953260
H        5.5543115154    1.5879449538   -2.0391127535
H        5.3421259646    0.8369145713    2.1931420522
H       -0.0007989779   -3.6542695578    0.9595661211
H       -0.4155379039   -0.3632243776   -1.7816957403
H        3.5566690446    0.1778578255   -2.3885498524
H        3.3749463774   -0.6038213044    1.8472391577
H       -0.2914542649    0.0719928953    1.5225566757
H        0.3223033243    0.8307074354    0.0424157026
H        1.3704378364    0.6898362514    1.4544293330
H        1.3337704066   -1.7991232210    1.2656838166
H        1.9260025046   -1.1539008720   -1.4921038078
30   
torsion grid (180,)
C       -2.1202614695   -3.4120376683   -1.5852952504
C        5.7082853009    1.0992102098    0.1869527258
C       -1.3214681310   -3.9564905055   -0.5751761887
C       -1.9251527788   -2.0836247479   -1.9775633947
C        5.2262755811    0.9887321320   -1.1231741692
C        4.9574036618    0.5431918449    1.2271917395
C       -0.3337675506   -3.1762069073    0.0338278384
C       -0.9413372270   -1.3063539250   -1.3596498014
C        4.0190439668    0.3433252108   -1.3864039005
C        3.7487617744   -0.1098663385    0.9750716180
C       -0.1328709630   -1.8431090699   -0.3458400884
C        3.2573131735   -0.2197235169   -0.3415393276
C        0.4525512077    0.3511191497    0.7973732968
C        0.9640126081   -1.0161334518    0.3066473668
N        2.0855331514   -0.9192928898   -0.6418096327
H       -2.8882638436   -4.0159337542   -2.0616692066
H        6.6466380585    1.6069274751    0.3908648298
H       -1.4643528890   -4.9882045537   -0.2639652770
H       -2.5427415261   -1.6511641287   -2.7607864875
H        5.7921797383    1.4135069602   -1.9488843606
H        5.3143911380    0.6146485964    2.2519526108
H        0.2922737231   -3.6089841333    0.8109594877
H       -0.8135388033   -0.2717589778   -1.6689050222
H        3.6567098851    0.2666306686   -2.4102641492
H        3.1952916887   -0.5419892897    1.8028777322
H       -0.3731784044    0.2166884051    1.5035952157
H        0.0930769955    0.9625342034   -0.0358198678
H        1.2493147971    0.9087643271    1.2955327908
H        1.3197098921   -1.5785536545    1.1763007988
H        1.7744194496   -0.7840561289   -1.5971354265
