27
0 1 C13H12O2
C                     7.567220084093    -2.081260118604    -0.804535709973
C                     1.254278214218    -1.896977695184     0.492784360366
C                     7.928296994026    -1.085003616333     0.113106241757
C                     6.454072505901    -2.879134006089    -0.535218207747
C                     0.954183913589    -0.532777594825     0.496806424673
C                     2.295031206678    -2.368048173603     1.298699217277
C                     7.186015061685    -0.891228065967     1.276097254260
C                     5.700255992064    -2.697116731011     0.631224035023
C                     1.678724984146     0.342705094286     1.310056000522
C                     3.041989049396    -1.512485296941     2.114014018318
C                     6.068061982909    -1.698458124043     1.543169378205
C                     2.710923345444    -0.144491085942     2.120394085693
C                     4.154669517572    -2.030548595538     2.995710094566
O                     3.425420098075     0.674400519118     2.957270926572
O                     5.434903249545    -1.442688161672     2.730691612124
H                     8.144030265905    -2.229136335287    -1.713247870358
H                     0.691875056595    -2.583509025054    -0.133197269493
H                     8.791808440482    -0.453242016640    -0.080147047744
H                     6.158936315272    -3.655143947553    -1.237302627350
H                     0.154958920266    -0.144368195118    -0.128895381568
H                     2.532675886481    -3.429792943371     1.297646085835
H                     7.450636984017    -0.121858134307     1.995698355012
H                     4.840471985211    -3.330082584573     0.808891245883
H                     1.438345437142     1.404970674974     1.320252853781
H                     3.965625028433    -1.765029458537     4.038498990509
H                     4.211826715404    -3.123834364395     2.929406417906
H                     3.085975476254     1.579856863796     2.877785032835
