
  -OEChem-12122420533D

 27 28  0     0  0  0  0  0  0999 V2000
    0.0850   -0.2904    4.9647 C   0  0  0  0  0  0  0  0  0  0  0  0
    0.0685   -1.6904    4.9278 C   0  0  0  0  0  0  0  0  0  0  0  0
   -0.5507    0.4161    3.9394 C   0  0  0  0  0  0  0  0  0  0  0  0
    1.1701   -0.3058   -1.1326 C   0  0  0  0  0  0  0  0  0  0  0  0
   -0.1306   -0.4358   -0.5584 C   0  0  0  0  0  0  0  0  0  0  0  0
   -0.5665   -2.3675    3.8877 C   0  0  0  0  0  0  0  0  0  0  0  0
   -1.1923   -0.2534    2.8943 C   0  0  0  0  0  0  0  0  0  0  0  0
    1.9332   -1.4299   -1.2675 C   0  0  0  0  0  0  0  0  0  0  0  0
   -0.6262   -1.6463   -0.1507 C   0  0  0  0  0  0  0  0  0  0  0  0
   -1.2137   -1.6611    2.8537 C   0  0  0  0  0  0  0  0  0  0  0  0
    0.1854   -2.8497   -0.2833 C   0  0  0  0  0  0  0  0  0  0  0  0
   -1.9783   -1.8325    0.4991 C   0  0  0  0  0  0  0  0  0  0  0  0
    1.4448   -2.6409   -0.8590 N   0  0  0  0  0  0  0  0  0  0  0  0
   -1.8947   -2.3740    1.8569 N   0  0  0  0  0  0  0  0  0  0  0  0
   -0.1542   -3.9901    0.0663 O   0  0  0  0  0  0  0  0  0  0  0  0
    0.5831    0.2362    5.7738 H   0  0  0  0  0  0  0  0  0  0  0  0
    0.5594   -2.2614    5.7123 H   0  0  0  0  0  0  0  0  0  0  0  0
   -0.5506    1.5037    3.9493 H   0  0  0  0  0  0  0  0  0  0  0  0
    1.5553    0.6555   -1.4516 H   0  0  0  0  0  0  0  0  0  0  0  0
   -0.7446    0.4550   -0.4414 H   0  0  0  0  0  0  0  0  0  0  0  0
   -0.5656   -3.4555    3.8658 H   0  0  0  0  0  0  0  0  0  0  0  0
   -1.6859    0.3246    2.1197 H   0  0  0  0  0  0  0  0  0  0  0  0
    2.9330   -1.4301   -1.6888 H   0  0  0  0  0  0  0  0  0  0  0  0
   -2.5693   -2.5444   -0.0848 H   0  0  0  0  0  0  0  0  0  0  0  0
   -2.5294   -0.8885    0.5037 H   0  0  0  0  0  0  0  0  0  0  0  0
    2.0104   -3.4794   -0.9481 H   0  0  0  0  0  0  0  0  0  0  0  0
   -1.5962   -3.3442    1.8160 H   0  0  0  0  0  0  0  0  0  0  0  0
  1  2  1  0  0  0  0
  1  3  2  0  0  0  0
  1 16  1  0  0  0  0
  2  6  2  0  0  0  0
  2 17  1  0  0  0  0
  3  7  1  0  0  0  0
  3 18  1  0  0  0  0
  4  5  1  0  0  0  0
  4  8  2  0  0  0  0
  4 19  1  0  0  0  0
  5  9  2  0  0  0  0
  5 20  1  0  0  0  0
  6 10  1  0  0  0  0
  6 21  1  0  0  0  0
  7 10  2  0  0  0  0
  7 22  1  0  0  0  0
  8 13  1  0  0  0  0
  8 23  1  0  0  0  0
  9 11  1  0  0  0  0
  9 12  1  0  0  0  0
 10 14  1  0  0  0  0
 11 13  1  0  0  0  0
 11 15  2  0  0  0  0
 12 14  1  0  0  0  0
 12 24  1  0  0  0  0
 12 25  1  0  0  0  0
 13 26  1  0  0  0  0
 14 27  1  0  0  0  0
M  END
$$$$
