27
0 1 C13H12O2
C                     2.653205738363    -2.624482782551    -3.129819723780
C                     3.915708842839     1.408512309875     1.574876475436
C                     3.423424676649    -3.521847727214    -2.378117495154
C                     1.855202816308    -1.691132411701    -2.465205548699
C                     3.011607281781     2.384340915490     2.002208938654
C                     3.508180905523     0.072834908798     1.500155896566
C                     3.391480936661    -3.486937747873    -0.984996494955
C                     1.814825944246    -1.641303423928    -1.066302784755
C                     1.707084162377     2.023953899179     2.352745924451
C                     2.208048078390    -0.306824455771     1.842987919298
C                     2.584908524147    -2.547715362105    -0.324515590772
C                     1.313016032627     0.684574575422     2.273827832570
C                     1.746654070944    -1.748946154406     1.784704764656
O                     0.039815377999     0.269720407171     2.607559182051
O                     2.625917683600    -2.597004192240     1.048229313928
H                     2.678617261945    -2.652158560165    -4.215571940654
H                     4.929156762197     1.684256489405     1.297908520689
H                     4.050501274700    -4.255300205500    -2.878827654818
H                     1.258127862006    -0.983219703093    -3.034678344520
H                     3.314580094765     3.426224103470     2.062711944068
H                     4.199554921260    -0.691815211944     1.160402933768
H                     3.978835392445    -4.178894340092    -0.388095687581
H                     1.206158019035    -0.890336153654    -0.576555748117
H                     0.998113358645     2.780592118198     2.686320309389
H                     1.727621937390    -2.175595217007     2.792063918110
H                     0.727103029105    -1.814074581400     1.389396767409
H                    -0.484029552049     1.040964922641     2.876201512366
