
  -OEChem-12102412493D

 27 28  0     0  0  0  0  0  0999 V2000
    7.5672   -2.0813   -0.8045 C   0  0  0  0  0  0  0  0  0  0  0  0
    1.2543   -1.8970    0.4928 C   0  0  0  0  0  0  0  0  0  0  0  0
    7.9283   -1.0850    0.1131 C   0  0  0  0  0  0  0  0  0  0  0  0
    6.4541   -2.8791   -0.5352 C   0  0  0  0  0  0  0  0  0  0  0  0
    0.9542   -0.5328    0.4968 C   0  0  0  0  0  0  0  0  0  0  0  0
    2.2950   -2.3680    1.2987 C   0  0  0  0  0  0  0  0  0  0  0  0
    7.1860   -0.8912    1.2761 C   0  0  0  0  0  0  0  0  0  0  0  0
    5.7003   -2.6971    0.6312 C   0  0  0  0  0  0  0  0  0  0  0  0
    1.6787    0.3427    1.3101 C   0  0  0  0  0  0  0  0  0  0  0  0
    3.0420   -1.5125    2.1140 C   0  0  0  0  0  0  0  0  0  0  0  0
    6.0681   -1.6985    1.5432 C   0  0  0  0  0  0  0  0  0  0  0  0
    2.7109   -0.1445    2.1204 C   0  0  0  0  0  0  0  0  0  0  0  0
    4.1547   -2.0305    2.9957 C   0  0  0  0  0  0  0  0  0  0  0  0
    3.4254    0.6744    2.9573 O   0  0  0  0  0  0  0  0  0  0  0  0
    5.4349   -1.4427    2.7307 O   0  0  0  0  0  0  0  0  0  0  0  0
    8.1440   -2.2291   -1.7132 H   0  0  0  0  0  0  0  0  0  0  0  0
    0.6919   -2.5835   -0.1332 H   0  0  0  0  0  0  0  0  0  0  0  0
    8.7918   -0.4532   -0.0801 H   0  0  0  0  0  0  0  0  0  0  0  0
    6.1589   -3.6551   -1.2373 H   0  0  0  0  0  0  0  0  0  0  0  0
    0.1550   -0.1444   -0.1289 H   0  0  0  0  0  0  0  0  0  0  0  0
    2.5327   -3.4298    1.2976 H   0  0  0  0  0  0  0  0  0  0  0  0
    7.4506   -0.1219    1.9957 H   0  0  0  0  0  0  0  0  0  0  0  0
    4.8405   -3.3301    0.8089 H   0  0  0  0  0  0  0  0  0  0  0  0
    1.4383    1.4050    1.3203 H   0  0  0  0  0  0  0  0  0  0  0  0
    3.9656   -1.7650    4.0385 H   0  0  0  0  0  0  0  0  0  0  0  0
    4.2118   -3.1238    2.9294 H   0  0  0  0  0  0  0  0  0  0  0  0
    3.0860    1.5799    2.8778 H   0  0  0  0  0  0  0  0  0  0  0  0
  1  3  1  0  0  0  0
  1  4  2  0  0  0  0
  1 16  1  0  0  0  0
  2  5  1  0  0  0  0
  2  6  2  0  0  0  0
  2 17  1  0  0  0  0
  3  7  2  0  0  0  0
  3 18  1  0  0  0  0
  4  8  1  0  0  0  0
  4 19  1  0  0  0  0
  5  9  2  0  0  0  0
  5 20  1  0  0  0  0
  6 10  1  0  0  0  0
  6 21  1  0  0  0  0
  7 11  1  0  0  0  0
  7 22  1  0  0  0  0
  8 11  2  0  0  0  0
  8 23  1  0  0  0  0
  9 12  1  0  0  0  0
  9 24  1  0  0  0  0
 10 12  2  0  0  0  0
 10 13  1  0  0  0  0
 11 15  1  0  0  0  0
 12 14  1  0  0  0  0
 13 15  1  0  0  0  0
 13 25  1  0  0  0  0
 13 26  1  0  0  0  0
 14 27  1  0  0  0  0
M  END
$$$$
