27
0 1 C12H12N2O
C                    -3.383865944305    -2.262952447125     5.451683993364
C                    -2.525132364799    -3.350298154166     5.240782432217
C                    -3.428828676658    -1.246660126175     4.495208461989
C                     2.150222307487    -2.513765331391    -0.965470067552
C                     1.167523261851    -2.371785143688     0.061566196515
C                    -1.724338916683    -3.411492423770     4.103045179693
C                    -2.636971967984    -1.302665717977     3.342960418918
C                     1.846173661358    -2.072115137346    -2.220671928840
C                    -0.060738531607    -1.813181795944    -0.182190919288
C                    -1.764328806743    -2.386597533496     3.134656260608
C                    -0.389550644447    -1.317846314580    -1.515357755509
C                    -1.129493174299    -1.624557378258     0.864020853606
N                     0.624527741931    -1.507830289064    -2.467114142728
N                    -0.905193084308    -2.471922977129     2.027166507566
O                    -1.447873420990    -0.767855114269    -1.840002068637
H                    -4.006295773768    -2.214500600708     6.340634231903
H                    -2.475841809546    -4.155069390332     5.970333847857
H                    -4.095043242377    -0.398761428891     4.635051620445
H                     3.118218561207    -2.957002337387    -0.763312662384
H                     1.402244496862    -2.702213824113     1.070004776227
H                    -1.050950380187    -4.254417511454     3.957307452787
H                    -2.712012418603    -0.505392568338     2.611712910941
H                     2.527178862409    -2.137921514432    -3.062793434471
H                    -2.113841903430    -1.781429549313     0.399096964285
H                    -1.112388235354    -0.575178389798     1.180841059420
H                     0.394027192602    -1.166152020821    -3.394905438187
H                    -0.723298123250    -3.435727380033     1.766213079788
