30
0 1 C12H16O2
C                    -6.921749265032    -0.104799672996    -5.386177913762
C                    -8.049341862337    -0.917458941083    -5.556010370263
C                    -5.650833243051    -0.627808042667    -5.645417193677
C                    -7.910658956667    -2.244399753415    -5.968925278666
C                    -5.502991671600    -1.951479106056    -6.073076672536
C                    -6.636372557405    -2.761945167444    -6.227631677129
C                    -6.937183702651    -7.585192090482    -6.637763166322
C                    -6.079910583454    -6.818323627123    -7.654819957837
C                    -7.603983030355    -6.630444513204    -5.637079974972
C                    -5.049696679030    -5.926492680143    -6.947293125251
C                    -6.570257124953    -5.752443453872    -4.937530991555
C                    -5.714814450895    -4.974367297654    -5.951467230351
O                    -7.275367893149    -4.892089766585    -4.040008315041
O                    -6.540641383685    -4.054775454905    -6.695958122998
H                    -7.033049001627     0.925246281165    -5.058650754317
H                    -9.040959814143    -0.520398785174    -5.353818547409
H                    -4.769832262237    -0.001157061846    -5.530533228707
H                    -8.770102771366    -2.897931206128    -6.079009135367
H                    -4.517597828062    -2.346122424976    -6.305937897278
H                    -7.703321298198    -8.173366469312    -7.155004245244
H                    -6.305325200028    -8.303226974860    -6.096283744402
H                    -5.565228250973    -7.516783272792    -8.324317576013
H                    -6.725434711827    -6.191085730566    -8.279760754331
H                    -8.311316660341    -5.974087434106    -6.154979276260
H                    -8.166883016586    -7.184495529325    -4.878830077965
H                    -4.331706584210    -6.551676046179    -6.400370724128
H                    -4.479490750518    -5.336026286644    -7.671919123459
H                    -5.877388829193    -6.397819200955    -4.370118023319
H                    -4.944962459963    -4.406379605924    -5.412341779168
H                    -6.659764206282    -4.227800326391    -3.690310128041
