27
0 1 C13H12O2
C                     8.637519834280    -2.790223196349     4.560970668653
C                     1.537965523600    -1.427722754982    -0.069897917069
C                     8.588331854738    -1.657578713551     3.735163892223
C                     7.484076850858    -3.556512475252     4.731057632933
C                     0.841874787340    -0.362716613146     0.508304286563
C                     2.528305015015    -2.078455960939     0.672099095678
C                     7.405696069640    -1.300063504919     3.092737159774
C                     6.286188120049    -3.210191655963     4.090848994389
C                     1.133558964520     0.043923883404     1.813252827401
C                     2.838503562891    -1.689889956528     1.978902423807
C                     6.246649761028    -2.075328581833     3.267707117350
C                     2.129429971777    -0.614949502123     2.543740399861
C                     3.919000515594    -2.382838184506     2.760411770640
O                     2.449150444422    -0.254172852632     3.830035454607
O                     5.139233685329    -1.643756065047     2.588978944668
H                     9.561115902773    -3.067035535954     5.061558249708
H                     1.313316033771    -1.746220447262    -1.083579478748
H                     9.477918291287    -1.049129073939     3.592041089211
H                     7.505917216741    -4.437550376761     5.367826799528
H                     0.067828077452     0.155059162305    -0.052121954961
H                     3.079235483708    -2.906092759166     0.230925393961
H                     7.351258149450    -0.425228444045     2.451170996473
H                     5.406419624709    -3.825167331191     4.241721015556
H                     0.588514200559     0.872861542093     2.262617599661
H                     3.661885792219    -2.422791995264     3.824033547850
H                     4.055902951621    -3.406416264918     2.389672852147
H                     1.896738761090     0.497909118853     4.095219209675
