24
0 1 C12H10O2
C                     2.345074447720     3.026515193367     3.908754443563
C                     1.051538137315     2.572508981333     4.196263126795
C                     3.404612532645     2.115264188895     3.905496156599
C                     4.575568260139    -3.762891243448     5.599301876316
C                     3.906543393007    -3.819261480682     4.374384879712
C                     0.819782993488     1.226438232915     4.480992179726
C                     3.186989426069     0.761547655299     4.184817616407
C                     4.254422528054    -2.771395515703     6.533037953851
C                     2.917916647135    -2.871676274616     4.084671167961
C                     1.890605951767     0.326318767409     4.474828021945
C                     3.260704414777    -1.828777309814     6.249131580979
C                     2.596349367193    -1.882559764653     5.010225551973
O                     2.891160441927    -0.838035490257     7.118436358994
O                     1.570915356468    -0.996673964881     4.731893928721
H                     2.522785712583     4.075741011483     3.689835974676
H                     0.218091947001     3.270400147801     4.202863464184
H                     4.412943493587     2.454020536376     3.680773799068
H                     5.347069876357    -4.490048343881     5.836837085230
H                     4.150542120541    -4.589191123078     3.648474330284
H                    -0.174936651162     0.857426824010     4.712714943200
H                     4.013165261269     0.058148018657     4.175441580503
H                     4.771279990541    -2.733593270691     7.490873671745
H                     2.381009475069    -2.883849419545     3.140501001732
H                     3.448826754417    -0.888052410025     7.910703243507
