
  -OEChem-12122420533D

 29 30  0     0  0  0  0  0  0999 V2000
   -3.6481   -0.3418    6.7229 C   0  0  0  0  0  0  0  0  0  0  0  0
   -2.5537    0.4975    6.9729 C   0  0  0  0  0  0  0  0  0  0  0  0
   -3.4717   -1.4573    5.9025 C   0  0  0  0  0  0  0  0  0  0  0  0
   -1.3087    0.2245    6.4105 C   0  0  0  0  0  0  0  0  0  0  0  0
   -2.2259   -1.7443    5.3301 C   0  0  0  0  0  0  0  0  0  0  0  0
   -1.1347   -0.9000    5.5858 C   0  0  0  0  0  0  0  0  0  0  0  0
    2.1174   -0.6761    2.1757 C   0  0  0  0  0  0  0  0  0  0  0  0
    2.6469   -1.0660    3.5631 C   0  0  0  0  0  0  0  0  0  0  0  0
    0.5966   -0.4664    2.2017 C   0  0  0  0  0  0  0  0  0  0  0  0
    1.9152   -2.2986    4.1134 C   0  0  0  0  0  0  0  0  0  0  0  0
   -0.1326   -1.7026    2.7474 C   0  0  0  0  0  0  0  0  0  0  0  0
    0.3962   -2.1128    4.1289 C   0  0  0  0  0  0  0  0  0  0  0  0
    0.1342   -1.0857    5.1095 O   0  0  0  0  0  0  0  0  0  0  0  0
   -4.6192   -0.1271    7.1599 H   0  0  0  0  0  0  0  0  0  0  0  0
   -2.6713    1.3709    7.6096 H   0  0  0  0  0  0  0  0  0  0  0  0
   -4.3099   -2.1187    5.6973 H   0  0  0  0  0  0  0  0  0  0  0  0
   -0.4517    0.8655    6.5974 H   0  0  0  0  0  0  0  0  0  0  0  0
   -2.1240   -2.6180    4.6972 H   0  0  0  0  0  0  0  0  0  0  0  0
    2.3614   -1.4711    1.4564 H   0  0  0  0  0  0  0  0  0  0  0  0
    2.6184    0.2321    1.8211 H   0  0  0  0  0  0  0  0  0  0  0  0
    3.7237   -1.2663    3.5191 H   0  0  0  0  0  0  0  0  0  0  0  0
    2.5066   -0.2284    4.2558 H   0  0  0  0  0  0  0  0  0  0  0  0
    0.3583    0.3966    2.8347 H   0  0  0  0  0  0  0  0  0  0  0  0
    0.2251   -0.2345    1.1971 H   0  0  0  0  0  0  0  0  0  0  0  0
    2.1381   -3.1722    3.4871 H   0  0  0  0  0  0  0  0  0  0  0  0
    2.2549   -2.5322    5.1279 H   0  0  0  0  0  0  0  0  0  0  0  0
   -1.2101   -1.5178    2.7942 H   0  0  0  0  0  0  0  0  0  0  0  0
    0.0142   -2.5531    2.0679 H   0  0  0  0  0  0  0  0  0  0  0  0
   -0.0735   -3.0473    4.4595 H   0  0  0  0  0  0  0  0  0  0  0  0
  1  2  1  0  0  0  0
  1  3  2  0  0  0  0
  1 14  1  0  0  0  0
  2  4  2  0  0  0  0
  2 15  1  0  0  0  0
  3  5  1  0  0  0  0
  3 16  1  0  0  0  0
  4  6  1  0  0  0  0
  4 17  1  0  0  0  0
  5  6  2  0  0  0  0
  5 18  1  0  0  0  0
  6 13  1  0  0  0  0
  7  8  1  0  0  0  0
  7  9  1  0  0  0  0
  7 19  1  0  0  0  0
  7 20  1  0  0  0  0
  8 10  1  0  0  0  0
  8 21  1  0  0  0  0
  8 22  1  0  0  0  0
  9 11  1  0  0  0  0
  9 23  1  0  0  0  0
  9 24  1  0  0  0  0
 10 12  1  0  0  0  0
 10 25  1  0  0  0  0
 10 26  1  0  0  0  0
 11 12  1  0  0  0  0
 11 27  1  0  0  0  0
 11 28  1  0  0  0  0
 12 13  1  0  0  0  0
 12 29  1  0  0  0  0
M  END
$$$$
