30
0 1 C12H16O2
C                     0.519650560349     0.152382118298    -0.083095977711
C                     0.898533690742     1.298710663380    -0.795546492027
C                     0.488756660321    -1.076013789833    -0.744979630135
C                     1.237106503692     1.215402014640    -2.144212394279
C                     0.828166996750    -1.174775079887    -2.100558724634
C                     1.207405734229    -0.022922819035    -2.806957266739
C                     0.558052945235    -2.373545927939    -7.506545355382
C                     2.035873171340    -2.121579855403    -7.174103235047
C                    -0.277844663799    -2.531873590328    -6.228599140073
C                     2.204732010566    -0.928979515259    -6.220424421106
C                    -0.115172662889    -1.322154991848    -5.294652545260
C                     1.370526112281    -1.131874032530    -4.957764214500
O                    -0.568313622557    -0.111362639890    -5.914795149108
O                     1.593514758267     0.006419342907    -4.119192794731
H                     0.252803977023     0.218924273960     0.967889074168
H                     0.927211036772     2.264673098576    -0.297391020016
H                     0.198077560001    -1.975723005415    -0.207984043140
H                     1.529037452081     2.095107813065    -2.710321850876
H                     0.798086177506    -2.145728968539    -2.581692089809
H                     0.168349564370    -1.528167405370    -8.084480880159
H                     0.455706061529    -3.266904641277    -8.133031471043
H                     2.463258875078    -3.022321278760    -6.711138920687
H                     2.605853299936    -1.943921074336    -8.092708807894
H                    -1.339989697918    -2.660045242684    -6.473131018939
H                     0.027483114775    -3.439337649219    -5.689304563853
H                     3.253602623772    -0.803192674088    -5.932982054362
H                     1.880483955917    -0.003198616942    -6.705084027417
H                    -0.677785866822    -1.490184430465    -4.367263059350
H                     1.722268971231    -2.040143123420    -4.450173137106
H                    -1.534037282412    -0.156759080593    -5.981297695856
