
  -OEChem-12102412493D

 24 25  0     0  0  0  0  0  0999 V2000
    2.3451    3.0265    3.9088 C   0  0  0  0  0  0  0  0  0  0  0  0
    1.0515    2.5725    4.1963 C   0  0  0  0  0  0  0  0  0  0  0  0
    3.4046    2.1153    3.9055 C   0  0  0  0  0  0  0  0  0  0  0  0
    4.5756   -3.7629    5.5993 C   0  0  0  0  0  0  0  0  0  0  0  0
    3.9065   -3.8193    4.3744 C   0  0  0  0  0  0  0  0  0  0  0  0
    0.8198    1.2264    4.4810 C   0  0  0  0  0  0  0  0  0  0  0  0
    3.1870    0.7615    4.1848 C   0  0  0  0  0  0  0  0  0  0  0  0
    4.2544   -2.7714    6.5330 C   0  0  0  0  0  0  0  0  0  0  0  0
    2.9179   -2.8717    4.0847 C   0  0  0  0  0  0  0  0  0  0  0  0
    1.8906    0.3263    4.4748 C   0  0  0  0  0  0  0  0  0  0  0  0
    3.2607   -1.8288    6.2491 C   0  0  0  0  0  0  0  0  0  0  0  0
    2.5963   -1.8826    5.0102 C   0  0  0  0  0  0  0  0  0  0  0  0
    2.8912   -0.8380    7.1184 O   0  0  0  0  0  0  0  0  0  0  0  0
    1.5709   -0.9967    4.7319 O   0  0  0  0  0  0  0  0  0  0  0  0
    2.5228    4.0757    3.6898 H   0  0  0  0  0  0  0  0  0  0  0  0
    0.2181    3.2704    4.2029 H   0  0  0  0  0  0  0  0  0  0  0  0
    4.4129    2.4540    3.6808 H   0  0  0  0  0  0  0  0  0  0  0  0
    5.3471   -4.4900    5.8368 H   0  0  0  0  0  0  0  0  0  0  0  0
    4.1505   -4.5892    3.6485 H   0  0  0  0  0  0  0  0  0  0  0  0
   -0.1749    0.8574    4.7127 H   0  0  0  0  0  0  0  0  0  0  0  0
    4.0132    0.0581    4.1754 H   0  0  0  0  0  0  0  0  0  0  0  0
    4.7713   -2.7336    7.4909 H   0  0  0  0  0  0  0  0  0  0  0  0
    2.3810   -2.8838    3.1405 H   0  0  0  0  0  0  0  0  0  0  0  0
    3.4488   -0.8881    7.9107 H   0  0  0  0  0  0  0  0  0  0  0  0
  1  2  1  0  0  0  0
  1  3  2  0  0  0  0
  1 15  1  0  0  0  0
  2  6  2  0  0  0  0
  2 16  1  0  0  0  0
  3  7  1  0  0  0  0
  3 17  1  0  0  0  0
  4  5  1  0  0  0  0
  4  8  2  0  0  0  0
  4 18  1  0  0  0  0
  5  9  2  0  0  0  0
  5 19  1  0  0  0  0
  6 10  1  0  0  0  0
  6 20  1  0  0  0  0
  7 10  2  0  0  0  0
  7 21  1  0  0  0  0
  8 11  1  0  0  0  0
  8 22  1  0  0  0  0
  9 12  1  0  0  0  0
  9 23  1  0  0  0  0
 10 14  1  0  0  0  0
 11 12  2  0  0  0  0
 11 13  1  0  0  0  0
 12 14  1  0  0  0  0
 13 24  1  0  0  0  0
M  END
$$$$
