28
0 1 C13H12N2O
C                     1.953550840128    -1.025053156595    -0.148962538120
C                    -1.296904957276    -1.761175318034     9.763246415155
C                     0.724807924041    -1.277373195767     0.467667810745
C                     3.080625261816    -0.804929296107     0.649682783902
C                    -1.913471413284    -1.875888813857     8.514091313683
C                     0.073150340749    -1.484956567090     9.819983313986
C                     0.599898331683    -1.314049658597     1.859244846471
C                     2.973842465473    -0.837941582469     2.039450589204
C                    -1.192650511435    -1.721022425518     7.326689499329
C                     0.806986022713    -1.327550334519     8.644946852308
C                     1.735418008896    -1.092214005085     2.656773250030
C                     0.183477576633    -1.443615814614     7.389097923709
C                     0.638830243037    -1.331691781205     4.912978634801
N                     1.719053896878    -1.107186148201     4.068774531091
N                     1.002861252998    -1.269325939715     6.252225965886
O                    -0.501252825602    -1.558173901674     4.522170353087
H                     2.033145294570    -1.000055031542    -1.232112404350
H                    -1.871959165058    -1.884459674884    10.676642709330
H                    -0.159672894360    -1.450275880234    -0.140278761260
H                     4.046894651545    -0.606745429697     0.193169981132
H                    -2.977544885578    -2.090293263551     8.454248753178
H                     0.575116560733    -1.391110560724    10.779455078479
H                    -0.354092622727    -1.509881485768     2.327751583015
H                     3.857970740725    -0.665147786797     2.651656767875
H                    -1.677733411889    -1.811413259247     6.365207607576
H                     1.873271392246    -1.112661624176     8.701157219815
H                     2.618784268964    -0.929714801701     4.495091556160
H                     1.972053664177    -1.075357874680     6.466389952163
