
  -OEChem-12102412493D

 27 28  0     0  0  0  0  0  0999 V2000
    2.6532   -2.6245   -3.1298 C   0  0  0  0  0  0  0  0  0  0  0  0
    3.9157    1.4085    1.5749 C   0  0  0  0  0  0  0  0  0  0  0  0
    3.4234   -3.5218   -2.3781 C   0  0  0  0  0  0  0  0  0  0  0  0
    1.8552   -1.6911   -2.4652 C   0  0  0  0  0  0  0  0  0  0  0  0
    3.0116    2.3843    2.0022 C   0  0  0  0  0  0  0  0  0  0  0  0
    3.5082    0.0728    1.5002 C   0  0  0  0  0  0  0  0  0  0  0  0
    3.3915   -3.4869   -0.9850 C   0  0  0  0  0  0  0  0  0  0  0  0
    1.8148   -1.6413   -1.0663 C   0  0  0  0  0  0  0  0  0  0  0  0
    1.7071    2.0240    2.3527 C   0  0  0  0  0  0  0  0  0  0  0  0
    2.2080   -0.3068    1.8430 C   0  0  0  0  0  0  0  0  0  0  0  0
    2.5849   -2.5477   -0.3245 C   0  0  0  0  0  0  0  0  0  0  0  0
    1.3130    0.6846    2.2738 C   0  0  0  0  0  0  0  0  0  0  0  0
    1.7467   -1.7489    1.7847 C   0  0  0  0  0  0  0  0  0  0  0  0
    0.0398    0.2697    2.6076 O   0  0  0  0  0  0  0  0  0  0  0  0
    2.6259   -2.5970    1.0482 O   0  0  0  0  0  0  0  0  0  0  0  0
    2.6786   -2.6522   -4.2156 H   0  0  0  0  0  0  0  0  0  0  0  0
    4.9292    1.6843    1.2979 H   0  0  0  0  0  0  0  0  0  0  0  0
    4.0505   -4.2553   -2.8788 H   0  0  0  0  0  0  0  0  0  0  0  0
    1.2581   -0.9832   -3.0347 H   0  0  0  0  0  0  0  0  0  0  0  0
    3.3146    3.4262    2.0627 H   0  0  0  0  0  0  0  0  0  0  0  0
    4.1996   -0.6918    1.1604 H   0  0  0  0  0  0  0  0  0  0  0  0
    3.9788   -4.1789   -0.3881 H   0  0  0  0  0  0  0  0  0  0  0  0
    1.2062   -0.8903   -0.5766 H   0  0  0  0  0  0  0  0  0  0  0  0
    0.9981    2.7806    2.6863 H   0  0  0  0  0  0  0  0  0  0  0  0
    1.7276   -2.1756    2.7921 H   0  0  0  0  0  0  0  0  0  0  0  0
    0.7271   -1.8141    1.3894 H   0  0  0  0  0  0  0  0  0  0  0  0
   -0.4840    1.0410    2.8762 H   0  0  0  0  0  0  0  0  0  0  0  0
  1  3  1  0  0  0  0
  1  4  2  0  0  0  0
  1 16  1  0  0  0  0
  2  5  1  0  0  0  0
  2  6  2  0  0  0  0
  2 17  1  0  0  0  0
  3  7  2  0  0  0  0
  3 18  1  0  0  0  0
  4  8  1  0  0  0  0
  4 19  1  0  0  0  0
  5  9  2  0  0  0  0
  5 20  1  0  0  0  0
  6 10  1  0  0  0  0
  6 21  1  0  0  0  0
  7 11  1  0  0  0  0
  7 22  1  0  0  0  0
  8 11  2  0  0  0  0
  8 23  1  0  0  0  0
  9 12  1  0  0  0  0
  9 24  1  0  0  0  0
 10 12  2  0  0  0  0
 10 13  1  0  0  0  0
 11 15  1  0  0  0  0
 12 14  1  0  0  0  0
 13 15  1  0  0  0  0
 13 25  1  0  0  0  0
 13 26  1  0  0  0  0
 14 27  1  0  0  0  0
M  END
$$$$
