
  -OEChem-12102412493D

 25 26  0     0  0  0  0  0  0999 V2000
    1.8188   -1.0337   -0.1430 C   0  0  0  0  0  0  0  0  0  0  0  0
    0.6300   -0.9482    0.5899 C   0  0  0  0  0  0  0  0  0  0  0  0
    3.0350   -1.1247    0.5398 C   0  0  0  0  0  0  0  0  0  0  0  0
    1.1055   -2.0947    8.1941 C   0  0  0  0  0  0  0  0  0  0  0  0
    1.7235   -1.2019    9.0698 C   0  0  0  0  0  0  0  0  0  0  0  0
    0.6632   -0.9556    1.9837 C   0  0  0  0  0  0  0  0  0  0  0  0
    3.0860   -1.1322    1.9366 C   0  0  0  0  0  0  0  0  0  0  0  0
    1.4550   -2.0534    6.8418 C   0  0  0  0  0  0  0  0  0  0  0  0
    2.6739   -0.3131    8.5514 C   0  0  0  0  0  0  0  0  0  0  0  0
    1.8887   -1.0482    2.6668 C   0  0  0  0  0  0  0  0  0  0  0  0
    2.4203   -1.1259    6.4252 C   0  0  0  0  0  0  0  0  0  0  0  0
    2.8834   -1.0790    4.9820 C   0  0  0  0  0  0  0  0  0  0  0  0
    3.0276   -0.2725    7.2630 N   0  0  0  0  0  0  0  0  0  0  0  0
    1.8404   -1.0594    4.0793 N   0  0  0  0  0  0  0  0  0  0  0  0
    4.0699   -1.0823    4.6830 O   0  0  0  0  0  0  0  0  0  0  0  0
    1.7959   -1.0276   -1.2292 H   0  0  0  0  0  0  0  0  0  0  0  0
   -0.3259   -0.8752    0.0779 H   0  0  0  0  0  0  0  0  0  0  0  0
    3.9655   -1.1891   -0.0185 H   0  0  0  0  0  0  0  0  0  0  0  0
    0.3730   -2.8126    8.5536 H   0  0  0  0  0  0  0  0  0  0  0  0
    1.4861   -1.1924   10.1297 H   0  0  0  0  0  0  0  0  0  0  0  0
   -0.2660   -0.8884    2.5472 H   0  0  0  0  0  0  0  0  0  0  0  0
    4.0298   -1.1952    2.4603 H   0  0  0  0  0  0  0  0  0  0  0  0
    1.0144   -2.7481    6.1318 H   0  0  0  0  0  0  0  0  0  0  0  0
    3.1764    0.3974    9.2061 H   0  0  0  0  0  0  0  0  0  0  0  0
    0.9159   -0.9546    4.4782 H   0  0  0  0  0  0  0  0  0  0  0  0
  1  2  1  0  0  0  0
  1  3  2  0  0  0  0
  1 16  1  0  0  0  0
  2  6  2  0  0  0  0
  2 17  1  0  0  0  0
  3  7  1  0  0  0  0
  3 18  1  0  0  0  0
  4  5  1  0  0  0  0
  4  8  2  0  0  0  0
  4 19  1  0  0  0  0
  5  9  2  0  0  0  0
  5 20  1  0  0  0  0
  6 10  1  0  0  0  0
  6 21  1  0  0  0  0
  7 10  2  0  0  0  0
  7 22  1  0  0  0  0
  8 11  1  0  0  0  0
  8 23  1  0  0  0  0
  9 13  1  0  0  0  0
  9 24  1  0  0  0  0
 10 14  1  0  0  0  0
 11 12  1  0  0  0  0
 11 13  2  0  0  0  0
 12 14  1  0  0  0  0
 12 15  2  0  0  0  0
 14 25  1  0  0  0  0
M  END
$$$$
