
  -OEChem-12122420533D

 16 16  0     0  0  0  0  0  0999 V2000
    2.2580   -1.1458   -2.7585 C   0  0  0  0  0  0  0  0  0  0  0  0
    3.2185   -1.6477   -3.6481 C   0  0  0  0  0  0  0  0  0  0  0  0
    2.4534   -1.2999   -1.3860 C   0  0  0  0  0  0  0  0  0  0  0  0
    4.3565   -2.2940   -3.1715 C   0  0  0  0  0  0  0  0  0  0  0  0
    3.5932   -1.9475   -0.8892 C   0  0  0  0  0  0  0  0  0  0  0  0
    4.5450   -2.4447   -1.7898 C   0  0  0  0  0  0  0  0  0  0  0  0
    5.9226   -3.2823   -0.0436 C   0  0  0  0  0  0  0  0  0  0  0  0
    5.6985   -3.0951   -1.4152 O   0  0  0  0  0  0  0  0  0  0  0  0
    7.1126   -3.9590    0.0597 F   0  0  0  0  0  0  0  0  0  0  0  0
    1.3716   -0.6425   -3.1336 H   0  0  0  0  0  0  0  0  0  0  0  0
    3.0798   -1.5350   -4.7202 H   0  0  0  0  0  0  0  0  0  0  0  0
    1.7175   -0.9157   -0.6844 H   0  0  0  0  0  0  0  0  0  0  0  0
    5.1101   -2.6889   -3.8464 H   0  0  0  0  0  0  0  0  0  0  0  0
    3.7173   -2.0508    0.1836 H   0  0  0  0  0  0  0  0  0  0  0  0
    5.1361   -3.9015    0.4068 H   0  0  0  0  0  0  0  0  0  0  0  0
    6.0291   -2.3217    0.4768 H   0  0  0  0  0  0  0  0  0  0  0  0
  1  2  1  0  0  0  0
  1  3  2  0  0  0  0
  1 10  1  0  0  0  0
  2  4  2  0  0  0  0
  2 11  1  0  0  0  0
  3  5  1  0  0  0  0
  3 12  1  0  0  0  0
  4  6  1  0  0  0  0
  4 13  1  0  0  0  0
  5  6  2  0  0  0  0
  5 14  1  0  0  0  0
  6  8  1  0  0  0  0
  7  8  1  0  0  0  0
  7  9  1  0  0  0  0
  7 15  1  0  0  0  0
  7 16  1  0  0  0  0
M  END
$$$$
