
  -OEChem-12122420533D

 27 28  0     0  0  0  0  0  0999 V2000
    1.9463   -1.0267   -0.1462 C   0  0  0  0  0  0  0  0  0  0  0  0
    0.7161   -1.2784    0.4678 C   0  0  0  0  0  0  0  0  0  0  0  0
    3.0713   -0.8078    0.6557 C   0  0  0  0  0  0  0  0  0  0  0  0
    0.1365   -1.4709    9.8213 C   0  0  0  0  0  0  0  0  0  0  0  0
   -1.2330   -1.7471    9.7204 C   0  0  0  0  0  0  0  0  0  0  0  0
    0.5878   -1.3157    1.8591 C   0  0  0  0  0  0  0  0  0  0  0  0
    2.9616   -0.8413    2.0452 C   0  0  0  0  0  0  0  0  0  0  0  0
    0.8808   -1.3115    8.6593 C   0  0  0  0  0  0  0  0  0  0  0  0
   -1.7790   -1.8478    8.4411 C   0  0  0  0  0  0  0  0  0  0  0  0
    1.7216   -1.0951    2.6598 C   0  0  0  0  0  0  0  0  0  0  0  0
    0.2219   -1.4353    7.4157 C   0  0  0  0  0  0  0  0  0  0  0  0
    0.6114   -1.3365    4.9102 C   0  0  0  0  0  0  0  0  0  0  0  0
   -1.0795   -1.6977    7.3077 N   0  0  0  0  0  0  0  0  0  0  0  0
    1.7014   -1.1108    4.0714 N   0  0  0  0  0  0  0  0  0  0  0  0
    1.0008   -1.2691    6.2587 N   0  0  0  0  0  0  0  0  0  0  0  0
   -0.5191   -1.5603    4.5210 O   0  0  0  0  0  0  0  0  0  0  0  0
    2.0284   -1.0012   -1.2292 H   0  0  0  0  0  0  0  0  0  0  0  0
   -0.1673   -1.4505   -0.1421 H   0  0  0  0  0  0  0  0  0  0  0  0
    4.0388   -0.6101    0.2015 H   0  0  0  0  0  0  0  0  0  0  0  0
    0.6173   -1.3811   10.7919 H   0  0  0  0  0  0  0  0  0  0  0  0
   -1.8543   -1.8795   10.6006 H   0  0  0  0  0  0  0  0  0  0  0  0
   -0.3677   -1.5112    2.3247 H   0  0  0  0  0  0  0  0  0  0  0  0
    3.8446   -0.6694    2.6594 H   0  0  0  0  0  0  0  0  0  0  0  0
    1.9463   -1.0964    8.7065 H   0  0  0  0  0  0  0  0  0  0  0  0
   -2.8390   -2.0612    8.3097 H   0  0  0  0  0  0  0  0  0  0  0  0
    2.6011   -0.9341    4.4980 H   0  0  0  0  0  0  0  0  0  0  0  0
    1.9741   -1.0742    6.4490 H   0  0  0  0  0  0  0  0  0  0  0  0
  1  2  1  0  0  0  0
  1  3  2  0  0  0  0
  1 17  1  0  0  0  0
  2  6  2  0  0  0  0
  2 18  1  0  0  0  0
  3  7  1  0  0  0  0
  3 19  1  0  0  0  0
  4  5  1  0  0  0  0
  4  8  2  0  0  0  0
  4 20  1  0  0  0  0
  5  9  2  0  0  0  0
  5 21  1  0  0  0  0
  6 10  1  0  0  0  0
  6 22  1  0  0  0  0
  7 10  2  0  0  0  0
  7 23  1  0  0  0  0
  8 11  1  0  0  0  0
  8 24  1  0  0  0  0
  9 13  1  0  0  0  0
  9 25  1  0  0  0  0
 10 14  1  0  0  0  0
 11 13  2  0  0  0  0
 11 15  1  0  0  0  0
 12 14  1  0  0  0  0
 12 15  1  0  0  0  0
 12 16  2  0  0  0  0
 14 26  1  0  0  0  0
 15 27  1  0  0  0  0
M  END
$$$$
