16
0 1 C7FH7O
C                     2.257989500445    -1.145819672401    -2.758466779802
C                     3.218511665825    -1.647726021275    -3.648092449550
C                     2.453374114663    -1.299900110872    -1.385961788175
C                     4.356509204743    -2.293982149900    -3.171502742784
C                     3.593210290383    -1.947493962443    -0.889174001123
C                     4.544966751687    -2.444709176511    -1.789788734164
C                     5.922637624163    -3.282346857800    -0.043586051381
O                     5.698533350906    -3.095113784588    -1.415246894230
F                     7.112636412720    -3.958970503298     0.059712118322
H                     1.371559949922    -0.642466907582    -3.133563742505
H                     3.079798311298    -1.535048540061    -4.720150502147
H                     1.717516192572    -0.915693108482    -0.684354786960
H                     5.110132822903    -2.688891957171    -3.846351983010
H                     3.717318528524    -2.050836360777     0.183624089928
H                     5.136053541964    -3.901504239517     0.406839043840
H                     6.029117630598    -2.321702357233     0.476817713351
