
  -OEChem-12122420533D

 24 25  0     0  0  0  0  0  0999 V2000
    2.0952  -10.9104    2.6571 C   0  0  0  0  0  0  0  0  0  0  0  0
    2.2039  -10.2154    1.4465 C   0  0  0  0  0  0  0  0  0  0  0  0
    1.8122  -10.2055    3.8303 C   0  0  0  0  0  0  0  0  0  0  0  0
    1.6231   -4.3147    5.8353 C   0  0  0  0  0  0  0  0  0  0  0  0
    2.8191   -4.9078    5.4102 C   0  0  0  0  0  0  0  0  0  0  0  0
    2.0360   -8.8300    1.4081 C   0  0  0  0  0  0  0  0  0  0  0  0
    1.6373   -8.8172    3.8083 C   0  0  0  0  0  0  0  0  0  0  0  0
    0.4280   -4.5475    5.1508 C   0  0  0  0  0  0  0  0  0  0  0  0
    2.8175   -5.7429    4.2892 C   0  0  0  0  0  0  0  0  0  0  0  0
    1.7534   -8.1399    2.5911 C   0  0  0  0  0  0  0  0  0  0  0  0
    0.4227   -5.3877    4.0323 C   0  0  0  0  0  0  0  0  0  0  0  0
    1.6227   -5.9805    3.6143 C   0  0  0  0  0  0  0  0  0  0  0  0
   -0.7459   -5.6245    3.3655 O   0  0  0  0  0  0  0  0  0  0  0  0
    1.5631   -6.7673    2.4637 O   0  0  0  0  0  0  0  0  0  0  0  0
    2.2297  -11.9881    2.6844 H   0  0  0  0  0  0  0  0  0  0  0  0
    2.4251  -10.7519    0.5275 H   0  0  0  0  0  0  0  0  0  0  0  0
    1.7212  -10.7350    4.7751 H   0  0  0  0  0  0  0  0  0  0  0  0
    1.6202   -3.6626    6.7044 H   0  0  0  0  0  0  0  0  0  0  0  0
    3.7463   -4.7177    5.9425 H   0  0  0  0  0  0  0  0  0  0  0  0
    2.1220   -8.2729    0.4798 H   0  0  0  0  0  0  0  0  0  0  0  0
    1.4157   -8.2742    4.7208 H   0  0  0  0  0  0  0  0  0  0  0  0
   -0.5057   -4.0917    5.4671 H   0  0  0  0  0  0  0  0  0  0  0  0
    3.7284   -6.2179    3.9358 H   0  0  0  0  0  0  0  0  0  0  0  0
   -0.5310   -6.1855    2.5982 H   0  0  0  0  0  0  0  0  0  0  0  0
  1  2  1  0  0  0  0
  1  3  2  0  0  0  0
  1 15  1  0  0  0  0
  2  6  2  0  0  0  0
  2 16  1  0  0  0  0
  3  7  1  0  0  0  0
  3 17  1  0  0  0  0
  4  5  1  0  0  0  0
  4  8  2  0  0  0  0
  4 18  1  0  0  0  0
  5  9  2  0  0  0  0
  5 19  1  0  0  0  0
  6 10  1  0  0  0  0
  6 20  1  0  0  0  0
  7 10  2  0  0  0  0
  7 21  1  0  0  0  0
  8 11  1  0  0  0  0
  8 22  1  0  0  0  0
  9 12  1  0  0  0  0
  9 23  1  0  0  0  0
 10 14  1  0  0  0  0
 11 12  2  0  0  0  0
 11 13  1  0  0  0  0
 12 14  1  0  0  0  0
 13 24  1  0  0  0  0
M  END
$$$$
