16
0 1 C7F3H5O
C                     1.836159633534    -1.038253069357    -0.126594836562
C                     2.932567288637    -1.438163564226     0.644944594659
C                     0.653391061999    -0.626712767551     0.497128963475
C                     2.853667024735    -1.426330304529     2.040939990215
C                     0.561246529702    -0.610226801897     1.892256460779
C                     1.667681103386    -1.007401212458     2.639536455999
C                     1.911117056248     0.059648643516     4.729581101513
O                     1.558931376517    -1.056619497980     4.047920461568
F                     3.204093888755     0.410490514763     4.529319500161
F                     1.739266164404    -0.184961505951     6.034679325417
F                     1.160163211200     1.136521208585     4.396309887491
H                     1.901966460420    -1.050927376854    -1.211025814360
H                     3.850519708636    -1.762252622291     0.162564556769
H                    -0.200661929203    -0.319906679521    -0.100217516945
H                     3.689756074209    -1.736210208347     2.659759688078
H                    -0.347340146891    -0.299035189484     2.397864457159
