25
0 1 C12H10N2O
C                     1.818814919102    -1.033674019576    -0.143005823098
C                     0.629997820299    -0.948181768703     0.589898189469
C                     3.035021621776    -1.124693923298     0.539837956547
C                     1.105548307691    -2.094694224033     8.194074856349
C                     1.723483390595    -1.201858173734     9.069807497024
C                     0.663214628361    -0.955599113370     1.983662690323
C                     3.086028341058    -1.132201116964     1.936617687980
C                     1.454989610907    -2.053439203556     6.841753688973
C                     2.673877035370    -0.313115594915     8.551374250639
C                     1.888702908807    -1.048151826509     2.666813387458
C                     2.420283478323    -1.125942172961     6.425229135814
C                     2.883410170709    -1.078998846728     4.981971849344
N                     3.027602943582    -0.272476584339     7.263018177660
N                     1.840389214684    -1.059437287250     4.079292007530
O                     4.069916855352    -1.082322921002     4.682997753368
H                     1.795881431854    -1.027643098033    -1.229167570215
H                    -0.325891446228    -0.875159568215     0.077904135428
H                     3.965452283825    -1.189096197448    -0.018475253916
H                     0.373022106486    -2.812638190474     8.553632784266
H                     1.486050069462    -1.192357844687    10.129708777436
H                    -0.266013520810    -0.888421040162     2.547246220049
H                     4.029823738694    -1.195183889122     2.460251878496
H                     1.014388801729    -2.748092445799     6.131831387574
H                     3.176386609221     0.397437496303     9.206056589700
H                     0.915903228877    -0.954640699357     4.478213941160
