
  -OEChem-12122420533D

 27 28  0     0  0  0  0  0  0999 V2000
    1.7557   -1.0638   -0.2702 C   0  0  0  0  0  0  0  0  0  0  0  0
    0.5743   -1.3074    0.4362 C   0  0  0  0  0  0  0  0  0  0  0  0
    2.9378   -0.8319    0.4420 C   0  0  0  0  0  0  0  0  0  0  0  0
    3.6926   -0.7507    8.8738 C   0  0  0  0  0  0  0  0  0  0  0  0
    4.8354   -0.5142    8.0934 C   0  0  0  0  0  0  0  0  0  0  0  0
    0.5516   -1.3236    1.8337 C   0  0  0  0  0  0  0  0  0  0  0  0
    2.9327   -0.8445    1.8359 C   0  0  0  0  0  0  0  0  0  0  0  0
    2.4779   -0.9898    8.2495 C   0  0  0  0  0  0  0  0  0  0  0  0
    4.6878   -0.5322    6.7113 C   0  0  0  0  0  0  0  0  0  0  0  0
    1.7416   -1.0901    2.5435 C   0  0  0  0  0  0  0  0  0  0  0  0
    2.4312   -0.9872    6.8368 C   0  0  0  0  0  0  0  0  0  0  0  0
    0.8288   -1.2930    4.8493 C   0  0  0  0  0  0  0  0  0  0  0  0
    3.5203   -0.7618    6.0872 N   0  0  0  0  0  0  0  0  0  0  0  0
    1.8320   -1.0836    3.9499 N   0  0  0  0  0  0  0  0  0  0  0  0
    1.2146   -1.2266    6.2087 N   0  0  0  0  0  0  0  0  0  0  0  0
   -0.3512   -1.5283    4.5969 O   0  0  0  0  0  0  0  0  0  0  0  0
    1.7569   -1.0545   -1.3567 H   0  0  0  0  0  0  0  0  0  0  0  0
   -0.3511   -1.4891   -0.1047 H   0  0  0  0  0  0  0  0  0  0  0  0
    3.8677   -0.6404   -0.0874 H   0  0  0  0  0  0  0  0  0  0  0  0
    3.7531   -0.7477    9.9589 H   0  0  0  0  0  0  0  0  0  0  0  0
    5.8041   -0.3232    8.5431 H   0  0  0  0  0  0  0  0  0  0  0  0
   -0.3659   -1.5127    2.3739 H   0  0  0  0  0  0  0  0  0  0  0  0
    3.8543   -0.6637    2.3854 H   0  0  0  0  0  0  0  0  0  0  0  0
    1.5763   -1.1760    8.8268 H   0  0  0  0  0  0  0  0  0  0  0  0
    5.5409   -0.3551    6.0592 H   0  0  0  0  0  0  0  0  0  0  0  0
    2.7499   -0.9023    4.3654 H   0  0  0  0  0  0  0  0  0  0  0  0
    0.4155   -1.3925    6.8080 H   0  0  0  0  0  0  0  0  0  0  0  0
  1  2  1  0  0  0  0
  1  3  2  0  0  0  0
  1 17  1  0  0  0  0
  2  6  2  0  0  0  0
  2 18  1  0  0  0  0
  3  7  1  0  0  0  0
  3 19  1  0  0  0  0
  4  5  1  0  0  0  0
  4  8  2  0  0  0  0
  4 20  1  0  0  0  0
  5  9  2  0  0  0  0
  5 21  1  0  0  0  0
  6 10  1  0  0  0  0
  6 22  1  0  0  0  0
  7 10  2  0  0  0  0
  7 23  1  0  0  0  0
  8 11  1  0  0  0  0
  8 24  1  0  0  0  0
  9 13  1  0  0  0  0
  9 25  1  0  0  0  0
 10 14  1  0  0  0  0
 11 13  2  0  0  0  0
 11 15  1  0  0  0  0
 12 14  1  0  0  0  0
 12 15  1  0  0  0  0
 12 16  2  0  0  0  0
 14 26  1  0  0  0  0
 15 27  1  0  0  0  0
M  END
$$$$
