
  -OEChem-12102412493D

 27 28  0     0  0  0  0  0  0999 V2000
    0.2055   -0.6564    5.1728 C   0  0  0  0  0  0  0  0  0  0  0  0
   -0.0642   -2.0308    5.1971 C   0  0  0  0  0  0  0  0  0  0  0  0
   -0.0822    0.0635    4.0098 C   0  0  0  0  0  0  0  0  0  0  0  0
    2.1262   -1.9427   -0.5416 C   0  0  0  0  0  0  0  0  0  0  0  0
    0.9401   -2.1550    0.2259 C   0  0  0  0  0  0  0  0  0  0  0  0
   -0.6124   -2.6684    4.0860 C   0  0  0  0  0  0  0  0  0  0  0  0
   -0.6249   -0.5646    2.8857 C   0  0  0  0  0  0  0  0  0  0  0  0
    2.0063   -1.3950   -1.7861 C   0  0  0  0  0  0  0  0  0  0  0  0
   -0.2990   -1.8236   -0.2533 C   0  0  0  0  0  0  0  0  0  0  0  0
   -0.9041   -1.9454    2.9098 C   0  0  0  0  0  0  0  0  0  0  0  0
   -0.4405   -1.2373   -1.5800 C   0  0  0  0  0  0  0  0  0  0  0  0
   -1.5962   -2.0259    0.5059 C   0  0  0  0  0  0  0  0  0  0  0  0
    0.7695   -1.0638   -2.2692 N   0  0  0  0  0  0  0  0  0  0  0  0
   -1.4811   -2.6091    1.8272 N   0  0  0  0  0  0  0  0  0  0  0  0
   -1.5097   -0.9047   -2.1068 O   0  0  0  0  0  0  0  0  0  0  0  0
    0.6320   -0.1607    6.0402 H   0  0  0  0  0  0  0  0  0  0  0  0
    0.1509   -2.6124    6.0904 H   0  0  0  0  0  0  0  0  0  0  0  0
    0.1248    1.1303    3.9673 H   0  0  0  0  0  0  0  0  0  0  0  0
    3.1036   -2.2015   -0.1518 H   0  0  0  0  0  0  0  0  0  0  0  0
    1.0280   -2.5790    1.2221 H   0  0  0  0  0  0  0  0  0  0  0  0
   -0.8271   -3.7352    4.1225 H   0  0  0  0  0  0  0  0  0  0  0  0
   -0.8176    0.0182    1.9914 H   0  0  0  0  0  0  0  0  0  0  0  0
    2.8497   -1.1955   -2.4390 H   0  0  0  0  0  0  0  0  0  0  0  0
   -2.2562   -2.6621   -0.0928 H   0  0  0  0  0  0  0  0  0  0  0  0
   -2.1237   -1.0681    0.5691 H   0  0  0  0  0  0  0  0  0  0  0  0
    0.6701   -0.6584   -3.1947 H   0  0  0  0  0  0  0  0  0  0  0  0
   -1.3831   -3.6156    1.8473 H   0  0  0  0  0  0  0  0  0  0  0  0
  1  2  1  0  0  0  0
  1  3  2  0  0  0  0
  1 16  1  0  0  0  0
  2  6  2  0  0  0  0
  2 17  1  0  0  0  0
  3  7  1  0  0  0  0
  3 18  1  0  0  0  0
  4  5  1  0  0  0  0
  4  8  2  0  0  0  0
  4 19  1  0  0  0  0
  5  9  2  0  0  0  0
  5 20  1  0  0  0  0
  6 10  1  0  0  0  0
  6 21  1  0  0  0  0
  7 10  2  0  0  0  0
  7 22  1  0  0  0  0
  8 13  1  0  0  0  0
  8 23  1  0  0  0  0
  9 11  1  0  0  0  0
  9 12  1  0  0  0  0
 10 14  1  0  0  0  0
 11 13  1  0  0  0  0
 11 15  2  0  0  0  0
 12 14  1  0  0  0  0
 12 24  1  0  0  0  0
 12 25  1  0  0  0  0
 13 26  1  0  0  0  0
 14 27  1  0  0  0  0
M  END
$$$$
