
  -OEChem-12102412493D

 27 28  0     0  0  0  0  0  0999 V2000
   -3.3839   -2.2630    5.4517 C   0  0  0  0  0  0  0  0  0  0  0  0
   -2.5251   -3.3503    5.2408 C   0  0  0  0  0  0  0  0  0  0  0  0
   -3.4288   -1.2467    4.4952 C   0  0  0  0  0  0  0  0  0  0  0  0
    2.1502   -2.5138   -0.9655 C   0  0  0  0  0  0  0  0  0  0  0  0
    1.1675   -2.3718    0.0616 C   0  0  0  0  0  0  0  0  0  0  0  0
   -1.7243   -3.4115    4.1030 C   0  0  0  0  0  0  0  0  0  0  0  0
   -2.6370   -1.3027    3.3430 C   0  0  0  0  0  0  0  0  0  0  0  0
    1.8462   -2.0721   -2.2207 C   0  0  0  0  0  0  0  0  0  0  0  0
   -0.0607   -1.8132   -0.1822 C   0  0  0  0  0  0  0  0  0  0  0  0
   -1.7643   -2.3866    3.1347 C   0  0  0  0  0  0  0  0  0  0  0  0
   -0.3896   -1.3178   -1.5154 C   0  0  0  0  0  0  0  0  0  0  0  0
   -1.1295   -1.6246    0.8640 C   0  0  0  0  0  0  0  0  0  0  0  0
    0.6245   -1.5078   -2.4671 N   0  0  0  0  0  0  0  0  0  0  0  0
   -0.9052   -2.4719    2.0272 N   0  0  0  0  0  0  0  0  0  0  0  0
   -1.4479   -0.7679   -1.8400 O   0  0  0  0  0  0  0  0  0  0  0  0
   -4.0063   -2.2145    6.3406 H   0  0  0  0  0  0  0  0  0  0  0  0
   -2.4758   -4.1551    5.9703 H   0  0  0  0  0  0  0  0  0  0  0  0
   -4.0950   -0.3988    4.6351 H   0  0  0  0  0  0  0  0  0  0  0  0
    3.1182   -2.9570   -0.7633 H   0  0  0  0  0  0  0  0  0  0  0  0
    1.4022   -2.7022    1.0700 H   0  0  0  0  0  0  0  0  0  0  0  0
   -1.0510   -4.2544    3.9573 H   0  0  0  0  0  0  0  0  0  0  0  0
   -2.7120   -0.5054    2.6117 H   0  0  0  0  0  0  0  0  0  0  0  0
    2.5272   -2.1379   -3.0628 H   0  0  0  0  0  0  0  0  0  0  0  0
   -2.1138   -1.7814    0.3991 H   0  0  0  0  0  0  0  0  0  0  0  0
   -1.1124   -0.5752    1.1808 H   0  0  0  0  0  0  0  0  0  0  0  0
    0.3940   -1.1662   -3.3949 H   0  0  0  0  0  0  0  0  0  0  0  0
   -0.7233   -3.4357    1.7662 H   0  0  0  0  0  0  0  0  0  0  0  0
  1  2  1  0  0  0  0
  1  3  2  0  0  0  0
  1 16  1  0  0  0  0
  2  6  2  0  0  0  0
  2 17  1  0  0  0  0
  3  7  1  0  0  0  0
  3 18  1  0  0  0  0
  4  5  1  0  0  0  0
  4  8  2  0  0  0  0
  4 19  1  0  0  0  0
  5  9  2  0  0  0  0
  5 20  1  0  0  0  0
  6 10  1  0  0  0  0
  6 21  1  0  0  0  0
  7 10  2  0  0  0  0
  7 22  1  0  0  0  0
  8 13  1  0  0  0  0
  8 23  1  0  0  0  0
  9 11  1  0  0  0  0
  9 12  1  0  0  0  0
 10 14  1  0  0  0  0
 11 13  1  0  0  0  0
 11 15  2  0  0  0  0
 12 14  1  0  0  0  0
 12 24  1  0  0  0  0
 12 25  1  0  0  0  0
 13 26  1  0  0  0  0
 14 27  1  0  0  0  0
M  END
$$$$
