27
0 1 C12H12N2O
C                   -11.020213045398   -13.607965288499     9.719072707189
C                   -11.149365533006   -13.419668463257     8.337361513792
C                   -11.404434187403   -14.834762509942    10.268415093906
C                    -8.902720417184   -19.324162908079     8.578355943548
C                   -10.288492855169   -18.983656068844     8.621324566835
C                   -11.648653915216   -14.436012955788     7.524362873776
C                   -11.908273784672   -15.858579460947     9.462444826849
C                    -8.226357708969   -19.132542511281     7.408043018196
C                   -10.947605333544   -18.481743084088     7.530269809099
C                   -12.042583966757   -15.673123253680     8.072848406170
C                   -10.230575060350   -18.265774767567     6.280163638593
C                   -12.401915475621   -18.069063918840     7.535494089944
N                    -8.878209669634   -18.627964553050     6.316150334805
N                   -12.597995788534   -16.649742846931     7.234498584650
O                   -10.720337707715   -17.804127305405     5.238625437113
H                   -10.627911790728   -12.816604450622    10.351519538452
H                   -10.853498479856   -12.475333632956     7.886548362340
H                   -11.313044346477   -15.001625456775    11.339253890459
H                    -8.388619639875   -19.719341177533     9.446445100967
H                   -10.835875471129   -19.127763120300     9.550715099326
H                   -11.737026800445   -14.280361797645     6.451003606169
H                   -12.207502488971   -16.795014501009     9.921929123702
H                    -7.172990994510   -19.358053808531     7.279451802397
H                   -12.861893330766   -18.316782174779     8.495547531318
H                   -12.943976103455   -18.628757514516     6.767627222649
H                    -8.379430906245   -18.476359060518     5.444932279542
H                   -12.379343659829   -16.477811276730     6.257507381994
