19   
torsion grid (-45,)
C        1.3578320212   -0.0271503725    1.6835007920
C        0.1918639897   -0.4534914263    1.0302772606
C        1.7007452965   -0.5939107556    2.9043302612
C       -0.5836486928   -1.4297264871    1.6530111465
C        0.4701814166   -4.8564815177    6.7012093509
C       -0.0377654316   -5.5147278912    5.6046665988
C        0.8390489498   -1.5692520801    3.4459039107
C        0.6210021028   -3.2878225693    5.2438349031
N       -0.2844189860   -1.9682964271    2.8442625403
N        0.6778784165   -3.4517176694    6.5476151400
N        1.1468558035   -2.1522975916    4.6739266840
S       -0.6931511184   -4.2421260278    4.5264781198
H        1.9965958063    0.7306728099    1.2377858829
H       -0.1071206730   -0.0388401376    0.0728403242
H        2.6096422662   -0.3067688087    3.4264090116
H       -1.4994294997   -1.7919992194    1.1892552380
H        0.7816627338   -5.3233804799    7.6300375595
H       -0.3974033242   -6.5351354076    5.5559843956
H        1.8041973912   -1.6732032710    5.2796384267
19   
torsion grid (-30,)
C        1.2906074970    0.0645934623    1.7171592738
C        0.1798551836   -0.4402529595    1.0228461986
C        1.6614189221   -0.5129831599    2.9234411299
C       -0.5115965612   -1.5071909240    1.5917678889
C        0.4878031740   -4.8807167445    6.7127772792
C       -0.2251250171   -5.4805196607    5.7093432155
C        0.8873836066   -1.5888719865    3.4091243851
C        0.6973559700   -3.3286948238    5.1858276842
N       -0.1801379800   -2.0686338417    2.7641975286
N        0.9060811083   -3.5729761807    6.4608957452
N        1.2245607949   -2.1883499895    4.6143668693
S       -0.6484933350   -4.2529390400    4.5134122594
H        1.8630614510    0.8964582453    1.3153482528
H       -0.1389604010   -0.0172688026    0.0756223886
H        2.5243262417   -0.1561501392    3.4796842341
H       -1.3818342624   -1.9337207476    1.0958539271
H        0.7677938649   -5.3462456837    7.6519017341
H       -0.7268917838   -6.4397690503    5.7249996796
H        1.9235447046   -1.7409695414    5.1960698665
19   
torsion grid (-15,)
C        1.2469136820    0.1100828825    1.7454742552
C        0.1726957048   -0.4361272953    1.0245898832
C        1.6292911520   -0.4716265600    2.9455959583
C       -0.4684183644   -1.5499882751    1.5606662864
C        0.5065395857   -4.8948029437    6.7100945972
C       -0.3408591604   -5.4313283433    5.7812910762
C        0.9072828268   -1.5980639977    3.3981263797
C        0.7233103572   -3.3436362163    5.1683317943
N       -0.1209062115   -2.1222751420    2.7234740199
N        1.0681607595   -3.6690362494    6.3920121185
N        1.2581909855   -2.2050009041    4.5925179605
S       -0.5910392887   -4.2830083477    4.4824824317
H        1.7806390454    0.9790709222    1.3696364831
H       -0.1544721970   -0.0103610143    0.0815106052
H        2.4614575172   -0.0789098407    3.5240853539
H       -1.3072845246   -2.0115636760    1.0424832856
H        0.7741934753   -5.3610028553    7.6525664879
H       -0.9279812099   -6.3375738461    5.8525723318
H        1.9714108585   -1.7698366630    5.1654130164
19   
torsion grid (0,)
C        1.2159763886    0.1443429114    1.7648218565
C        0.1803034267   -0.4365930112    1.0150403448
C        1.5966055294   -0.4344852573    2.9667474910
C       -0.4235303493   -1.5837608234    1.5231886880
C        0.5324271568   -4.9212954182    6.6888018530
C       -0.4492316786   -5.3559457132    5.8467178613
C        0.9160512068   -1.5983829126    3.3881948892
C        0.7306315328   -3.3449591080    5.1545104768
N       -0.0712343648   -2.1598431779    2.6827457686
N        1.2023479639   -3.7810520860    6.2976831369
N        1.2658342187   -2.2046902000    4.5823735411
S       -0.5735491427   -4.2956555584    4.4629972552
H        1.7192684648    1.0404654756    1.4113693297
H       -0.1449864287   -0.0126352673    0.0705182938
H        2.3941340913   -0.0100827005    3.5711079090
H       -1.2310646228   -2.0736261536    0.9816915972
H        0.8138904087   -5.4000065163    7.6207408630
H       -1.0963169213   -6.2173118280    5.9492950998
H        2.0160249696   -1.8009727125    5.1303364186
19   
torsion grid (15,)
C        1.1755895906    0.1701651489    1.7977130304
C        0.1817524260   -0.4437378282    1.0183702467
C        1.5584030005   -0.4119122826    2.9975169476
C       -0.3763533104   -1.6275047502    1.4940842266
C        0.5574152671   -4.9376388373    6.6734514243
C       -0.5402012582   -5.2634757414    5.9266664266
C        0.9279301310   -1.6154391802    3.3834799081
C        0.7453754867   -3.3622120776    5.1526440163
N       -0.0144126933   -2.2119469447    2.6463973730
N        1.3326812720   -3.8917620868    6.1999496004
N        1.2846505240   -2.2272682004    4.5736490893
S       -0.5470997708   -4.3199990156    4.4508817258
H        1.6421240213    1.0957414981    1.4707409266
H       -0.1455053110   -0.0178955325    0.0753564521
H        2.3184391596    0.0415516050    3.6284626083
H       -1.1497258636   -2.1442383288    0.9282724990
H        0.8477780159   -5.4229635194    7.5994015041
H       -1.2381867218   -6.0763767544    6.0785960775
H        2.0605024529   -1.8448595689    5.1009801312
19   
torsion grid (30,)
C        1.1279376806    0.2017024448    1.8358162430
C        0.1785785740   -0.4391018358    1.0241492877
C        1.5163122472   -0.3906680766    3.0293273731
C       -0.3285988614   -1.6612910331    1.4590646446
C        0.5680974293   -4.9484324676    6.6546003238
C       -0.6115747318   -5.1552309321    5.9908838141
C        0.9395349985   -1.6327469091    3.3715604956
C        0.7648925493   -3.3855923999    5.1370091751
N        0.0457305727   -2.2588515510    2.6003270201
N        1.4325424258   -4.0162942207    6.0780159839
N        1.3070480897   -2.2577856959    4.5547605195
S       -0.5110125532   -4.3686735127    4.4136463151
H        1.5540566943    1.1568517556    1.5404070983
H       -0.1523272660   -0.0059163533    0.0857231866
H        2.2381719424    0.0849818551    3.6881296593
H       -1.0645061019   -2.2009840129    0.8654790830
H        0.8584903376   -5.4227875070    7.5861183158
H       -1.3763474047   -5.8930808762    6.1979508141
H        2.0967744560   -1.8868993928    5.0704042909
19   
torsion grid (45,)
C        1.0438670630    0.2372831196    1.9122265920
C        0.1743990082   -0.4387487548    1.0433427092
C        1.4472521947   -0.3803410029    3.0891099429
C       -0.2381299195   -1.7206855331    1.4021023230
C        0.5765869961   -4.9460297970    6.6242295550
C       -0.6854846788   -4.9693659021    6.0761845568
C        0.9734589415   -1.6823916887    3.3485238258
C        0.8255821225   -3.4600882863    5.0953787866
N        0.1625677977   -2.3447074685    2.5195625989
N        1.5558168162   -4.1908755672    5.9094357084
N        1.3654724452   -2.3363725495    4.5153081717
S       -0.4984572288   -4.4060703058    4.3852470127
H        1.3925111309    1.2394440048    1.6774999103
H       -0.1675787603    0.0121203105    0.1171768404
H        2.0993761962    0.1230610945    3.7979350674
H       -0.9096266666   -2.2887045063    0.7606884392
H        0.8621481599   -5.3911452007    7.5718920279
H       -1.5231188935   -5.5873401413    6.3752171787
H        2.1897112626   -1.9978623977    4.9996218370
