21   
torsion grid (-165,)
C        2.0363184918   -0.7467877402   -1.5918428494
C        2.2415302338   -2.0479007394   -1.3289372487
C        0.5739943011   -0.3657036464   -1.5065822300
C        0.9336826713   -2.7530903671   -1.0091507014
C       -0.0605587514   -1.5866186089   -0.7924945813
C        4.8028520671   -2.1934579621   -1.8625447557
C        4.6336581267   -2.3022732713   -0.3595302202
C        3.5357871334   -2.7842938443   -1.2805204742
O        3.4219237830   -4.1977138314   -1.3077944361
H        2.8083655435   -0.0362660255   -1.8778404743
H        0.4076876784    0.5699549112   -0.9598916534
H        0.1552967447   -0.2165261393   -2.5127270927
H        0.6323727821   -3.3927306501   -1.8508139166
H        1.0193818084   -3.4116410110   -0.1394325172
H       -0.1361571874   -1.3755756561    0.2793259741
H       -1.0681673110   -1.8143688220   -1.1523643569
H        4.7483091888   -1.2134955274   -2.3268733967
H        5.4880691390   -2.8913246169   -2.3343965332
H        5.2000688488   -3.0730774985    0.1543421006
H        4.4386424298   -1.3969558459    0.2061526761
H        3.1756836220   -4.4549315701   -2.2110747449
21   
torsion grid (-150,)
C        2.0021352693   -0.7857769315   -1.7574147547
C        2.2393262926   -2.0527240725   -1.3820065553
C        0.5476211972   -0.4004727295   -1.5944689742
C        0.9678881382   -2.7276384868   -0.8948992014
C       -0.0210207756   -1.5489383097   -0.7208434813
C        4.8360371726   -2.1178074417   -1.7537429115
C        4.5595085918   -2.4265410283   -0.2922609843
C        3.5378674693   -2.7773476485   -1.3484205653
O        3.4372250209   -4.1770182565   -1.5638030595
H        2.7438115281   -0.1089833224   -2.1742878679
H        0.4168478866    0.5830368004   -1.1280731623
H        0.0525300565   -0.3472692018   -2.5750920860
H        0.6141150663   -3.4527951999   -1.6398380080
H        1.1282446211   -3.2929282125    0.0291125858
H       -0.0244687234   -1.2339887697    0.3279076381
H       -1.0489414624   -1.8139780465   -0.9848875165
H        4.8203394376   -1.0818289559   -2.0773261534
H        5.5571541170   -2.7492327613   -2.2636170977
H        5.0914501622   -3.2611703454    0.1545059432
H        4.3253739439   -1.6008994157    0.3719922502
H        3.2056963341   -4.3104761270   -2.4975274703
21   
torsion grid (-135,)
C        1.9718188961   -0.8297047972   -1.8721878466
C        2.2407964947   -2.0514242929   -1.3864178773
C        0.5226544891   -0.4403231408   -1.6770487144
C        0.9999331968   -2.6902369069   -0.7864056659
C        0.0061165884   -1.5075670840   -0.6761360179
C        4.8481697328   -2.0619423890   -1.6574544760
C        4.5180162897   -2.5518002777   -0.2552051962
C        3.5422527132   -2.7701580220   -1.3829874611
O        3.4550181778   -4.1325867395   -1.7768899937
H        2.6889007552   -0.1945578806   -2.3863615290
H        0.4026347604    0.5815110678   -1.2985432809
H       -0.0162844870   -0.4819473422   -2.6347353604
H        0.6259595371   -3.4830117797   -1.4471115145
H        1.2060276185   -3.1669424615    0.1781731494
H        0.0447994338   -1.0966522267    0.3381260831
H       -1.0293694806   -1.8026583657   -0.8688310041
H        4.8398870317   -0.9926354461   -1.8433730273
H        5.5941541989   -2.6222149817   -2.2126775116
H        5.0391824997   -3.4337620840    0.1048310600
H        4.2601616644   -1.8134257339    0.4975560568
H        3.2279112332   -4.1427375785   -2.7213113046
21   
torsion grid (-120,)
C        1.9422696161   -0.8757991612   -1.9614504476
C        2.2459110944   -2.0417927641   -1.3711603907
C        0.4946524633   -0.4877286720   -1.7555100400
C        1.0339121347   -2.6411230707   -0.6796754304
C        0.0245732601   -1.4665681009   -0.6463829116
C        4.8564809722   -2.0211434637   -1.5641190331
C        4.4931188401   -2.6790950682   -0.2386951688
C        3.5481795549   -2.7600485653   -1.4048604381
O        3.4707057708   -4.0621698831   -1.9704959419
H        2.6369485341   -0.2849327366   -2.5538691096
H        0.3701877369    0.5629311950   -1.4685776505
H       -0.0717188284   -0.6242154110   -2.6881552383
H        0.6567948372   -3.4958057899   -1.2558972107
H        1.2745364688   -3.0240729048    0.3184042653
H        0.0857098707   -0.9643151512    0.3247129884
H       -1.0111631216   -1.7914292707   -0.7804203004
H        4.8452883276   -0.9369530233   -1.6165013969
H        5.6204096799   -2.5082383327   -2.1624292289
H        5.0112914987   -3.5961064323    0.0250147746
H        4.2187657892   -2.0370799286    0.5929275169
H        3.2418868443   -3.9490919274   -2.9078510399
21   
torsion grid (-105,)
C        1.9104729811   -0.9255737586   -2.0410025452
C        2.2533854412   -2.0253726261   -1.3530976638
C        0.4623011860   -0.5437616033   -1.8295297876
C        1.0710524041   -2.5806034760   -0.5792352304
C        0.0422894094   -1.4232582788   -0.6213022037
C        4.8646982555   -1.9951468712   -1.4665792882
C        4.4703225589   -2.8072123699   -0.2372335496
C        3.5544263360   -2.7475687310   -1.4232402113
O        3.4883270256   -3.9676039080   -2.1515850443
H        2.5805106898   -0.3808565611   -2.7027500458
H        0.3243014027    0.5268832324   -1.6390614159
H       -0.1260889203   -0.7782110502   -2.7284484279
H        0.6961207749   -3.4880451587   -1.0704866589
H        1.3424795412   -2.8704008319    0.4421246952
H        0.1243437509   -0.8329505210    0.2973077645
H       -0.9912560488   -1.7737296911   -0.6923134331
H        4.8477785714   -0.9122715397   -1.3906105839
H        5.6454091971   -2.4078998969   -2.0984136641
H        4.9867498922   -3.7479203568   -0.0725425137
H        4.1787239737   -2.2693403025    0.6600632294
H        3.2623929213   -3.7339341622   -3.0670548538
21   
torsion grid (-90,)
C        1.8716815614   -0.9815116962   -2.1215254494
C        2.2624532348   -2.0047188929   -1.3460769441
C        0.4238076566   -0.6078296902   -1.8961503564
C        1.1172498448   -2.5074410968   -0.4856363994
C        0.0630756468   -1.3782442476   -0.5976895667
C        4.8744874674   -1.9822600047   -1.3590681220
C        4.4387216758   -2.9354510279   -0.2504706865
C        3.5625390112   -2.7308913566   -1.4471862151
O        3.5222870638   -3.8488905786   -2.3262014297
H        2.5081596020   -0.4870552327   -2.8529841284
H        0.2688083064    0.4732015425   -1.8019476048
H       -0.1886250187   -0.9373401115   -2.7479615739
H        0.7474025806   -3.4626108846   -0.8820705389
H        1.4244167114   -2.6985261870    0.5486725618
H        0.1626527397   -0.7038662800    0.2592077839
H       -0.9642760076   -1.7530397490   -0.6001307759
H        4.8513799996   -0.9157668772   -1.1565952768
H        5.6759070170   -2.3198103559   -2.0095550054
H        4.9516425241   -3.8898413234   -0.1830563034
H        4.1194388582   -2.5098785850    0.6964222736
H        3.2955308686   -3.5030058274   -3.2049876745
21   
torsion grid (-75,)
C        1.8177521639   -1.0552672401   -2.2144803591
C        2.2663646277   -1.9940065929   -1.3664209226
C        0.3762377688   -0.6811640554   -1.9536273056
C        1.1744375655   -2.4204828866   -0.4013879617
C        0.0975695554   -1.3203792955   -0.5674002917
C        4.8740289247   -1.9793565254   -1.2294298156
C        4.3855526280   -3.0682169355   -0.2809453973
C        3.5728061744   -2.7129765741   -1.4864627189
O        3.5982832545   -3.7075186995   -2.5035173425
H        2.4045075466   -0.6238465980   -3.0240000723
H        0.2051409700    0.4014986161   -1.9610405982
H       -0.2722256651   -1.1050408605   -2.7340720315
H        0.8011348715   -3.4144887956   -0.6839464529
H        1.5326770286   -2.5057858729    0.6304315539
H        0.2320854482   -0.5624720769    0.2113804329
H       -0.9218724445   -1.7052731095   -0.4757977581
H        4.8281435475   -0.9471223235   -0.8954518317
H        5.7111485569   -2.2284983495   -1.8749275464
H        4.9016579382   -4.0226784926   -0.3104833625
H        4.0146821449   -2.7717506573    0.6957388891
H        3.3886287381   -3.2599511377   -3.3391505396
21   
torsion grid (-60,)
C        1.9918939573   -0.7137132087   -0.6231696122
C        2.2475144860   -1.9935554936   -0.9346841848
C        0.6027006140   -0.2830919973   -1.0321623865
C        1.0452684494   -2.6453383961   -1.5984376990
C       -0.0988892861   -1.6282442575   -1.3587377313
C        3.9738169115   -3.2070019665    0.6021577965
C        3.6420925636   -4.1715186577   -0.5275320817
C        3.5677307633   -2.6744766402   -0.7427897777
O        4.6542679813   -2.0909118487   -1.4521569288
H        2.7198909365   -0.0383502218   -0.1800198134
H        0.0839687173    0.2804164666   -0.2477985717
H        0.6489190662    0.3780835687   -1.9095742880
H        1.2402126043   -2.8019463573   -2.6695215000
H        0.8129272363   -3.6327107657   -1.1844033918
H       -0.6888527088   -1.9469216290   -0.4933125505
H       -0.7832560714   -1.5536893437   -2.2084598460
H        3.2689553241   -3.1063381262    1.4212195530
H        5.0203026154   -3.0883938198    0.8666682783
H        4.4741229645   -4.6901426151   -0.9938170845
H        2.7190370683   -4.7404474905   -0.4625202302
H        4.4269498834   -2.1132450524   -2.3959001709
21   
torsion grid (-45,)
C        2.0394867777   -0.6563711504   -0.7827181263
C        2.2723193270   -1.9667818360   -0.9607922530
C        0.6262295422   -0.2642567515   -1.1464601497
C        1.0198271839   -2.6891640051   -1.4258055629
C       -0.1004776701   -1.6311155970   -1.2554345501
C        3.8505669088   -3.3558607194    0.5830712767
C        3.6838368792   -4.1572523703   -0.6975594373
C        3.5815481545   -2.6425743822   -0.7128866174
O        4.7167433079   -1.9579102960   -1.2223345958
H        2.7971327794    0.0591303675   -0.4733434490
H        0.1654633882    0.3951638558   -0.4016714874
H        0.6097425635    0.2858004472   -2.0983745291
H        1.1333905558   -3.0134987356   -2.4698641323
H        0.8135979895   -3.5959929986   -0.8455918016
H       -0.6430234426   -1.8270294987   -0.3251280137
H       -0.8316079001   -1.6580886798   -2.0682390412
H        3.0522913387   -3.3812988513    1.3184081640
H        4.8536710505   -3.2520255663    0.9855715691
H        4.5838211083   -4.5792293570   -1.1338992979
H        2.7851829676   -4.7538889546   -0.8215309024
H        4.5598312665   -1.8192927734   -2.1703692837
21   
torsion grid (-30,)
C        2.0665436071   -0.6246769147   -0.9228690155
C        2.2845394811   -1.9497403245   -0.9609208103
C        0.6367672635   -0.2665997252   -1.2600664043
C        1.0082640191   -2.7063323775   -1.2849442623
C       -0.0974309745   -1.6287698200   -1.1543000296
C        3.7498553782   -3.4822726929    0.5442417459
C        3.7269028523   -4.1237889939   -0.8309316505
C        3.5835208613   -2.6166375705   -0.6758400366
O        4.7359122203   -1.8547146272   -0.9899509354
H        2.8380083152    0.1142954711   -0.7240996140
H        0.2181816709    0.4859777659   -0.5817468696
H        0.5691967211    0.1569638926   -2.2725904712
H        1.0632640910   -3.1225538978   -2.3005805398
H        0.8340960795   -3.5553495611   -0.6131994367
H       -0.5640204340   -1.7101882221   -0.1673055140
H       -0.8896473030   -1.7449396195   -1.8993479069
H        2.8888009086   -3.6108187205    1.1930185308
H        4.7072988878   -3.4067574290    1.0502983848
H        4.6753907435   -4.4720920058   -1.2276400472
H        2.8602857708   -4.7133561180   -1.1136451574
H        4.6738439164   -1.6291863618   -1.9325321814
21   
torsion grid (-15,)
C        2.0795440562   -0.6169809384   -1.0270275675
C        2.2797450015   -1.9415436060   -0.9238247502
C        0.6430676693   -0.2782455425   -1.3582792784
C        0.9896184364   -2.7085226796   -1.1584140159
C       -0.0995459881   -1.6105524285   -1.0810183874
C        3.6977371072   -3.5912478682    0.4960742055
C        3.7677254658   -4.0820421384   -0.9364163214
C        3.5766880367   -2.6012582697   -0.6353425032
O        4.7209839871   -1.7840794606   -0.7851955714
H        2.8603634903    0.1302786373   -0.9176296922
H        0.2519562983    0.5498619740   -0.7559068349
H        0.5480855902    0.0299834140   -2.4097160114
H        1.0132737968   -3.1911060081   -2.1454653013
H        0.8245353312   -3.5074094626   -0.4258199360
H       -0.5139725038   -1.5864629538   -0.0679184245
H       -0.9298107002   -1.7896006095   -1.7702428444
H        2.8083171282   -3.8089228649    1.0789488686
H        4.6243177831   -3.5457804703    1.0592838741
H        4.7444135827   -4.3685251637   -1.3139310724
H        2.9316958603   -4.6512498408   -1.3308781161
H        4.7508346473   -1.5081315723   -1.7162325409
21   
torsion grid (0,)
C        2.0869123243   -0.6265520523   -1.1183456308
C        2.2685573955   -1.9351301830   -0.8730477818
C        0.6485826966   -0.2991402570   -1.4532331697
C        0.9648162266   -2.7012209505   -1.0254922103
C       -0.1064083678   -1.5836082794   -1.0269911862
C        3.6688948706   -3.6940305494    0.4365923277
C        3.8111123048   -4.0287200188   -1.0342119050
C        3.5670164023   -2.5914848793   -0.5895086834
O        4.6930128723   -1.7376490741   -0.5841193020
H        2.8759004929    0.1196481158   -1.0937189735
H        0.2816216481    0.5928018150   -0.9323277548
H        0.5363110797   -0.1002923613   -2.5291564852
H        0.9642886711   -3.2617443360   -1.9707487436
H        0.7985119240   -3.4338204449   -0.2276065998
H       -0.4916286049   -1.4536958570   -0.0104282732
H       -0.9576100103   -1.8151799115   -1.6737838205
H        2.7665608181   -3.9999685175    0.9557069473
H        4.5712635640   -3.6843803224    1.0391189596
H        4.8090263889   -4.2511077741   -1.3995175051
H        3.0058308456   -4.5681504873   -1.5230519128
H        4.8070005341   -1.4081115276   -1.4910805179
21   
torsion grid (15,)
C        1.6915241859   -1.1742824276   -0.0091423930
C        2.3062822380   -1.8991272573   -0.9591226193
C        0.3387310977   -0.6678488733   -0.4543595297
C        1.4576479248   -1.9817611534   -2.2161504241
C        0.0690034280   -1.4785757061   -1.7477186555
C        4.1420414955   -3.5776216047   -1.7773611831
C        4.7079004990   -2.1778410927   -1.9177975011
C        3.6770365406   -2.4593982634   -0.8536457257
O        4.2194900400   -2.4762553379    0.4524826773
H        2.1373647024   -0.9214510894    0.9486060352
H       -0.4445582476   -0.8121449634    0.2991549273
H        0.3833284563    0.4128883845   -0.6527824611
H        1.8793440566   -1.3372356498   -3.0005317018
H        1.4073475447   -2.9922171563   -2.6353955752
H       -0.5634190607   -2.3399276627   -1.5094206027
H       -0.4487814207   -0.8964580943   -2.5152903934
H        3.4709297381   -3.9435261692   -2.5476989275
H        4.7842696863   -4.3274856399   -1.3261093524
H        5.7165195888   -2.0021465842   -1.5574570489
H        4.4082531805   -1.5802003886   -2.7727739866
H        3.6484856698   -3.0521617329    0.9875230092
21   
torsion grid (30,)
C        1.7385449388   -1.0958413756   -0.0606406288
C        2.2937213351   -1.9342565306   -0.9517898750
C        0.3848192711   -0.5930665148   -0.5060623529
C        1.3971050591   -2.1133295402   -2.1642081054
C        0.0429360728   -1.5187466723   -1.7017002375
C        4.1812046550   -3.4951702344   -1.8782458617
C        4.7437916249   -2.0866912200   -1.8133164949
C        3.6652487481   -2.5029427402   -0.8478761677
O        4.1386945854   -2.6828852388    0.4747679889
H        2.2256669840   -0.7723599058    0.8551743223
H       -0.3738378793   -0.6329308586    0.2844297135
H        0.4566124218    0.4602090340   -0.8144504528
H        1.8079287457   -1.5689715430   -3.0270827969
H        1.3035611727   -3.1603472064   -2.4718484681
H       -0.6049818303   -2.3307393760   -1.3559124886
H       -0.4868776462   -0.9987102535   -2.5047670092
H        3.5523657268   -3.7587471818   -2.7229258414
H        4.8085973714   -4.2954145087   -1.4982966677
H        5.7333164500   -1.9567988468   -1.3861691243
H        4.4788477689   -1.3848691774   -2.5980902497
H        3.5014757682   -3.2621685718    0.9240193658
21   
torsion grid (45,)
C        1.7906507274   -1.0018884323   -0.1389320619
C        2.2886709110   -1.9445760346   -0.9553922419
C        0.4237456306   -0.5250102101   -0.5717525802
C        1.3345749347   -2.2324471739   -2.1014105743
C        0.0125263283   -1.5662865074   -1.6451116204
C        4.2162664505   -3.3940343877   -1.9665194157
C        4.7891659316   -2.0139998904   -1.6859170462
C        3.6557292452   -2.5366340263   -0.8469853162
O        4.0501038596   -2.8944576576    0.4680034346
H        2.3221175780   -0.5968971333    0.7183807144
H       -0.2954485203   -0.4683827035    0.2538401180
H        0.4933227909    0.4889240890   -0.9921837965
H        1.7121376216   -1.7882994995   -3.0343941768
H        1.2177722684   -3.3047562202   -2.2939234907
H       -0.6310963811   -2.3234309134   -1.1853997737
H       -0.5466733853   -1.1235286146   -2.4741433821
H        3.6299159278   -3.5316226415   -2.8701928919
H        4.8163671231   -4.2477299519   -1.6672224440
H        5.7573358018   -1.9599782476   -1.1974190664
H        4.5734077123   -1.2112496013   -2.3843843808
H        3.3781487879   -3.5084927046    0.8060685606
21   
torsion grid (60,)
C        1.8510775275   -0.9008575799   -0.2537146848
C        2.2925392465   -1.9344307069   -0.9868809422
C        0.4605328682   -0.4619671930   -0.6505278081
C        1.2631611672   -2.3435292542   -2.0271734249
C       -0.0247179301   -1.6194030754   -1.5628571669
C        4.2668372612   -3.2716148629   -2.0495734486
C        4.8472396663   -1.9641179803   -1.5278656354
C        3.6436418041   -2.5680241399   -0.8622494398
O        3.9322271196   -3.1176826765    0.4161012154
H        2.4348910035   -0.4088121150    0.5204095226
H       -0.2002480914   -0.3011241596    0.2093157805
H        0.5040907198    0.4946427532   -1.1913813253
H        1.5769028671   -2.0080408222   -3.0264880233
H        1.1373642122   -3.4304112001   -2.0935155044
H       -0.6351986988   -2.3111833885   -0.9731746885
H       -0.6400113158   -1.2718658482   -2.3975902095
H        3.7437623189   -3.2586019484   -3.0017636809
H        4.8276004595   -4.1774755330   -1.8405626564
H        5.7788699879   -2.0173287202   -0.9725573621
H        4.7028491162   -1.0620205102   -2.1141479369
H        3.2253300343   -3.7509295012    0.6212059872
21   
torsion grid (75,)
C        1.9081709487   -0.8116490068   -0.3893489107
C        2.2948676679   -1.9238106894   -1.0305063348
C        0.4968594696   -0.4015405580   -0.7428410807
C        1.1874556871   -2.4497161543   -1.9298984677
C       -0.0597638947   -1.6556975163   -1.4678885111
C        4.3344558075   -3.1335497371   -2.1131475544
C        4.8856042340   -1.9325231831   -1.3534583572
C        3.6233222530   -2.5991692822   -0.8899392201
O        3.7977088930   -3.3302705853    0.3178239827
H        2.5460235395   -0.2410592573    0.2816329358
H       -0.1000783196   -0.1250048635    0.1338956718
H        0.5096373486    0.4797472411   -1.4005074341
H        1.4282722074   -2.2525929056   -2.9842992894
H        1.0509888365   -3.5347531971   -1.8462396423
H       -0.6281960237   -2.2602940597   -0.7535623103
H       -0.7335754755   -1.4048810193   -2.2920693809
H        3.8895828924   -2.9631734429   -3.0899352276
H        4.8660075064   -4.0739882362   -2.0030463827
H        5.7667924680   -2.0950171154   -0.7403638298
H        4.8059004868   -0.9513994542   -1.8102840418
H        3.1187048110   -4.0244354403    0.3389919530
21   
torsion grid (90,)
C        1.9541180857   -0.7502691812   -0.5180187550
C        2.2912192175   -1.9287845744   -1.0593271108
C        0.5295264466   -0.3550553858   -0.8344726402
C        1.1239977790   -2.5374932764   -1.8199410882
C       -0.0841248609   -1.6703176120   -1.3848754862
C        4.3974587784   -3.0030183141   -2.1495682402
C        4.8948495539   -1.9210184233   -1.1974122646
C        3.6026229687   -2.6295854653   -0.9181275392
O        3.6831954888   -3.5166608293    0.1911314888
H        2.6367692630   -0.1205402087    0.0477425099
H       -0.0105007817    0.0232441381    0.0411082095
H        0.5121979673    0.4506535747   -1.5824727807
H        1.3058464087   -2.4782882523   -2.9023296095
H        0.9753539241   -3.6008902956   -1.5936386105
H       -0.6222067509   -2.1794983909   -0.5788473215
H       -0.7975873335   -1.4984854709   -2.1957750529
H        4.0198328841   -2.6961782131   -3.1213367660
H        4.9195369239   -3.9552823914   -2.1331052534
H        5.7297234684   -2.1754504571   -0.5520850046
H        4.8534397295   -0.8880401797   -1.5267328686
H        3.0734721833   -4.2538192538    0.0230927515
21   
torsion grid (105,)
C        1.9865089193   -0.7139660168   -0.6278605869
C        2.2825660751   -1.9467834727   -1.0614299516
C        0.5563778884   -0.3247380061   -0.9274651900
C        1.0757928261   -2.6048876658   -1.7105370464
C       -0.0999253590   -1.6767588937   -1.3145789748
C        4.4429531083   -2.8820836269   -2.1661828846
C        4.8897720503   -1.9259970367   -1.0666622887
C        3.5872467303   -2.6567066538   -0.9370131404
O        3.6105302452   -3.6768362441    0.0540491656
H        2.6986799034   -0.0440752971   -0.1522026358
H        0.0592008970    0.1522921030   -0.0751068325
H        0.5203373729    0.3993512268   -1.7541223200
H        1.2147442703   -2.6558430420   -2.7997395674
H        0.9178672397   -3.6364151605   -1.3712785897
H       -0.6086451844   -2.0924854899   -0.4390752702
H       -0.8454102751   -1.5745730326   -2.1082601995
H        4.1106673431   -2.4568713514   -3.1093404563
H        4.9647242146   -3.8319985042   -2.2410475583
H        5.6902194174   -2.2604796086   -0.4146840641
H        4.8679285036   -0.8613444838   -1.2736624179
H        3.0666051574   -4.4135782058   -0.2687906226
21   
torsion grid (120,)
C        2.0100270638   -0.6919866870   -0.7289590514
C        2.2729186539   -1.9668648363   -1.0488035792
C        0.5770170491   -0.3072063609   -1.0215493944
C        1.0358581876   -2.6593761472   -1.5972203002
C       -0.1119095404   -1.6778636220   -1.2519939732
C        4.4769531301   -2.7632175760   -2.1693865502
C        4.8803864867   -1.9448382120   -0.9507636101
C        3.5750546832   -2.6818272601   -0.9508594251
O        3.5638620147   -3.8170721972   -0.0951314091
H        2.7434249648    0.0104263179   -0.3412116746
H        0.1150618311    0.2614062983   -0.2063351916
H        0.5252108614    0.3311939509   -1.9153606837
H        1.1392494712   -2.8101773175   -2.6815063904
H        0.8731270398   -3.6503601931   -1.1566165416
H       -0.5925064336   -1.9989615562   -0.3224985806
H       -0.8849159802   -1.6407486449   -2.0247478982
H        4.1740344636   -2.2295456499   -3.0657981663
H        5.0013183100   -3.7001442046   -2.3364870482
H        5.6548430102   -2.3556176804   -0.3114419409
H        4.8692759220   -0.8633847840   -1.0329782923
H        3.0904501548   -4.5286121006   -0.5553417309
21   
torsion grid (135,)
C        2.0320783502   -0.6805825868   -0.8369331311
C        2.2662115112   -1.9854451546   -1.0404487946
C        0.5948946851   -0.3012274998   -1.1166823778
C        1.0006641947   -2.7034070927   -1.4813207952
C       -0.1200435110   -1.6751179549   -1.1893032021
C        4.5144666106   -2.6425007022   -2.1608002322
C        4.8704142349   -1.9809120890   -0.8392961181
C        3.5657053459   -2.7074320307   -0.9721425755
O        3.5291173291   -3.9401808731   -0.2675157939
H        2.7846037006    0.0474233809   -0.5453925551
H        0.1694719858    0.3519289638   -0.3460772375
H        0.5201346870    0.2475524844   -2.0667698782
H        1.0630501238   -2.9522952552   -2.5510963231
H        0.8420021424   -3.6454212794   -0.9442347985
H       -0.5680839976   -1.8991646335   -0.2161167204
H       -0.9217988937   -1.6995162205   -1.9326990801
H        4.2374549358   -2.0045484468   -2.9949428127
H        5.0442076005   -3.5550615741   -2.4207397302
H        5.6181641398   -2.4708800911   -0.2245506401
H        4.8637756653   -0.8977294063   -0.7851015527
H        3.0822505035   -4.5902604010   -0.8328270831
21   
torsion grid (150,)
C        2.0506760991   -0.6795479386   -0.9709519647
C        2.2605640709   -2.0026566602   -1.0555343689
C        0.6048137036   -0.3076237305   -1.2142890200
C        0.9666602676   -2.7380219788   -1.3657145124
C       -0.1255478246   -1.6706479902   -1.1114519180
C        4.5694458776   -2.5189077753   -2.1320014327
C        4.8504634098   -2.0277915482   -0.7235091285
C        3.5575638324   -2.7323577177   -1.0111882056
O        3.4956873966   -4.0427430902   -0.4700253505
H        2.8224820029    0.0650864178   -0.7935270437
H        0.2256535738    0.4266152851   -0.4940850108
H        0.4859032981    0.1425348086   -2.2108483932
H        0.9687866408   -3.0790123859   -2.4123752546
H        0.8309635911   -3.6265426226   -0.7402218115
H       -0.5165158506   -1.7938276670   -0.0964660498
H       -0.9701663306   -1.7554324444   -1.8010228663
H        4.3246903226   -1.7851125556   -2.8940984223
H        5.1184882673   -3.3920381534   -2.4744128434
H        5.5670900898   -2.5907546195   -0.1347272707
H        4.8275922037   -0.9609981108   -0.5282129762
H        3.0734467021   -4.6149979852   -1.1303275884
21   
torsion grid (165,)
C        2.0669251948   -0.6909634484   -1.1470587279
C        2.2555626519   -2.0203995342   -1.1131032970
C        0.6099596198   -0.3186936639   -1.3125082517
C        0.9337477169   -2.7586942407   -1.2464799463
C       -0.1228692274   -1.6514657723   -1.0159852281
C        4.6460389226   -2.3991549276   -2.0741631796
C        4.8075665744   -2.0960242513   -0.5981291824
C        3.5483814946   -2.7616853112   -1.0789962674
O        3.4575517942   -4.1288752041   -0.7163919417
H        2.8582658979    0.0544143724   -1.1129527246
H        0.2958857337    0.4894861901   -0.6416568057
H        0.4155097320    0.0329071176   -2.3366113534
H        0.8462707008   -3.1987534205   -2.2520683998
H        0.8446861840   -3.5821933767   -0.5313767440
H       -0.4322690777   -1.6664709723    0.0340228093
H       -1.0213189431   -1.7890465511   -1.6243622495
H        4.4450804462   -1.5772408258   -2.7547519290
H        5.2326947561   -3.2185944183   -2.4804982070
H        5.4855391759   -2.7269349827   -0.0324494649
H        4.7391419917   -1.0666074425   -0.2612534827
H        3.0763900046   -4.6097877992   -1.4682168587
21   
torsion grid (180,)
C        2.0618657953   -0.7151760947   -1.3717380860
C        2.2489848131   -2.0371135462   -1.2225654498
C        0.5963686834   -0.3401416547   -1.4088628374
C        0.9199116847   -2.7672911017   -1.1255116394
C       -0.1026765619   -1.6270792751   -0.9011114340
C        4.7369488310   -2.2832975538   -1.9803805517
C        4.7313551410   -2.1839136897   -0.4687434729
C        3.5424843344   -2.7788832950   -1.1812768723
O        3.4338692589   -4.1815732994   -1.0120296177
H        2.8549846036    0.0188058670   -1.4978211659
H        0.3630828388    0.5334094708   -0.7887973285
H        0.2879936573   -0.0856701495   -2.4336795016
H        0.7170763821   -3.3133796490   -2.0591830244
H        0.9137917379   -3.5108732096   -0.3231199548
H       -0.3004664470   -1.5304058520    0.1713597846
H       -1.0607288363   -1.8140196093   -1.3947296570
H        4.6074279333   -1.3779437058   -2.5660748750
H        5.3753025673   -3.0417470150   -2.4244448272
H        5.3557288156   -2.8822328427    0.0798968672
H        4.5943561217   -1.2103600993   -0.0087991193
H        3.1110799900   -4.5558921581   -1.8473786691
