23   
torsion grid (-165,)
C        1.0317362207   -1.5765903753    1.8661705969
C        0.7660462811   -0.2881591427    1.5607107779
C       -0.0746765037    2.0965247018    2.3222398912
C       -0.9014678253    1.0650956738    3.0268088933
C        0.5495398124    0.7460723179    2.6461836850
C        0.6177615871    0.1503410289    0.1257703468
C        1.5096390333    0.7222158662    3.8052977023
N        3.5466328547    0.0517770267    2.7482320228
O        2.8858143193    1.1148977371    3.4163814882
H        1.1474028494   -2.3258922405    1.0877238946
H        1.0434496006   -1.9424448666    2.8913835814
H       -0.3077232105    2.3197448947    1.2878993830
H        0.2751877604    2.9540487467    2.8891407484
H       -1.1334763975    1.1992218346    4.0795892005
H       -1.6685977343    0.5436543775    2.4635106799
H       -0.4186491363    0.4439765472   -0.0775551166
H        1.2399554832    1.0234641067   -0.0976745665
H        0.8704262795   -0.6559210850   -0.5657904900
H        1.5657365591   -0.2440947416    4.3184181526
H        1.2736681938    1.4874866487    4.5455557808
H        4.0015831350   -0.5693261822    3.4352591338
H        4.2665043653    0.4885638231    2.1569002973
H        2.8595220596   -0.4936770402    2.1595079344
23   
torsion grid (-150,)
C        0.8482842403   -1.5690147537    1.8568208505
C        0.7554169524   -0.2579550569    1.5551575446
C       -0.2353624656    2.0537575363    2.3451799561
C       -0.9075758639    0.9816150742    3.1559912531
C        0.5170285722    0.7701970677    2.6466554888
C        0.8739492557    0.2388213372    0.1354964122
C        1.5743516805    0.8313422033    3.7175730909
N        3.5288034404   -0.0043111327    2.6383301977
O        2.9196095287    1.1556306025    3.1802621563
H        1.0064446298   -2.3200905056    1.0865933657
H        0.6872310400   -1.9361249666    2.8690757562
H       -0.5818098960    2.2152001581    1.3306600132
H        0.0869150708    2.9595168353    2.8503140851
H       -1.0543491483    1.1429219197    4.2205579825
H       -1.6807614599    0.3855171818    2.6823263932
H       -0.0993740085    0.5881471106   -0.2269521358
H        1.5521557287    1.0967388782    0.0638437065
H        1.2098148246   -0.5489801969   -0.5430098609
H        1.6604755203   -0.0977199011    4.2938338177
H        1.4102941613    1.6549466186    4.4137628841
H        3.9830306847   -0.5514350341    3.3864368739
H        4.2444632561    0.3298241591    1.9790362166
H        2.8052978582   -0.5877947474    2.1394115990
23   
torsion grid (-135,)
C       -0.4316226989   -1.5086418253    1.7549015790
C        0.5938162972   -0.6314738281    1.7521586895
C        0.9452569538    1.9623548363    1.8092997263
C       -0.5249624361    1.7383830795    2.0754139073
C        0.4795091618    0.6843542793    2.4924537681
C        1.9244714896   -0.9480955714    1.1216912876
C        0.8619154007    0.6305228279    3.9500214358
N        0.1473403931   -1.5186532972    4.7094632201
O       -0.0832178684   -0.1256691469    4.8076649794
H       -0.3620012398   -2.4659339622    1.2427520578
H       -1.4111552067   -1.2233679526    2.1377654928
H        1.2883626248    1.8836048587    0.7833992613
H        1.4758807711    2.7031045311    2.4001918696
H       -1.0087191023    2.3210020187    2.8538024107
H       -1.1595355917    1.5043123249    1.2272147269
H        2.0904974369   -0.3014310447    0.2533848338
H        2.7537395987   -0.7492726494    1.8109555059
H        1.9822867775   -1.9850113893    0.7834082784
H        0.8206662382    1.6168857435    4.4141007849
H        1.8651540792    0.2146574494    4.1112710349
H       -0.6249934182   -1.9653311671    5.2220816770
H        1.0436770198   -1.7755407126    5.1530861447
H        0.1236286978   -1.7977352198    3.6915106740
23   
torsion grid (-120,)
C       -0.4668511371   -1.4340617006    1.6175091777
C        0.6051661429   -0.6302570539    1.7692916113
C        0.8254045333    1.9673143063    1.7684737150
C       -0.5966379336    1.6799206714    2.1821197401
C        0.4934187594    0.6809243325    2.5147466969
C        1.9757753842   -1.0048556006    1.2649522377
C        0.9788075139    0.6496931402    3.9409379608
N        0.1474923251   -1.4717359324    4.6629626988
O        0.0704771333   -0.0716877743    4.8648738620
H       -0.3971203553   -2.3800021926    1.0851486272
H       -1.4614027208   -1.1119931733    1.9223556010
H        1.0706815996    1.8745315757    0.7155730306
H        1.3780884680    2.7423725229    2.2911897357
H       -1.0260231177    2.2551938529    2.9968304064
H       -1.3003726773    1.4082662643    1.4027606146
H        2.2683042607   -0.3293712681    0.4538221644
H        2.7429035946   -0.8945782026    2.0406397148
H        2.0079301760   -2.0274332932    0.8826277513
H        0.9813764735    1.6419748447    4.3936739890
H        1.9808633490    0.2160863972    4.0494089965
H       -0.6393926952   -1.8723434226    5.1911760345
H        1.0334509718   -1.8468183270    5.0374675970
H        0.0474061711   -1.6880664338    3.6343101842
23   
torsion grid (-105,)
C       -0.4540886157   -1.3515881835    1.4732807647
C        0.6476966657   -0.6399923535    1.7829160565
C        0.7665267687    1.9573083379    1.7442366844
C       -0.5949003326    1.6255752090    2.2912929676
C        0.5582569750    0.6678137713    2.5351296506
C        2.0320370926   -1.0874571946    1.3780023603
C        1.1327351578    0.6595733021    3.9271257582
N        0.1898141510   -1.4222317324    4.6334177244
O        0.2604216313   -0.0336923585    4.9071609421
H       -0.3883778609   -2.2768815089    0.9060468804
H       -1.4530175004   -0.9926489588    1.7114206275
H        0.9201542580    1.8471463534    0.6755433305
H        1.3395284729    2.7580309295    2.2025750006
H       -0.9633933014    2.1963120083    3.1382263508
H       -1.3604950826    1.3305545376    1.5826220377
H        2.4628023920   -0.3636953954    0.6775987606
H        2.7235846893   -1.1340577833    2.2277513155
H        2.0186655200   -2.0662094888    0.8939855982
H        1.1703544557    1.6573047010    4.3656467742
H        2.1310878585    0.2118053218    3.9911863638
H       -0.6050463742   -1.7739297279    5.1840021114
H        1.0521503958   -1.8985734034    4.9416939779
H        0.0243960484   -1.5859732482    3.6047052222
23   
torsion grid (-90,)
C       -0.4459981576   -1.2972023131    1.3143411406
C        0.6357667518   -0.6540634137    1.7942382157
C        0.5974522209    1.9453867320    1.7266174328
C       -0.6908447224    1.5473069308    2.3825603464
C        0.5317467843    0.6534794613    2.5445262926
C        2.0369957264   -1.1540209248    1.5160079351
C        1.1780591066    0.6880632717    3.9031894907
N        0.1827974570   -1.3688572414    4.6216454735
O        0.3561664102    0.0024216737    4.9338055491
H       -0.3432196240   -2.2021238294    0.7211629359
H       -1.4563498034   -0.9245914565    1.4589426923
H        0.6785732616    1.8216381862    0.6515720050
H        1.1608201852    2.7812069069    2.1313071812
H       -1.0169729121    2.1056255762    3.2546966515
H       -1.4984311499    1.2123042171    1.7426159892
H        2.6070030550   -0.3860958900    0.9816634833
H        2.6029459750   -1.3725057225    2.4300787877
H        2.0265248652   -2.0606608118    0.9080397247
H        1.2184562461    1.6939060895    4.3221925567
H        2.1829723769    0.2546004703    3.9323842980
H       -0.6069264985   -1.6877564418    5.1989809539
H        1.0253879622   -1.9089161879    4.8733192022
H       -0.0363300582   -1.4968453328    3.6001589814
23   
torsion grid (-75,)
C       -0.4026296245   -1.2201271761    1.1458951230
C        0.6409674049   -0.6613910681    1.7871515803
C        0.4619950524    1.9386429029    1.7303854180
C       -0.7421069602    1.4780489636    2.4872765523
C        0.5360745913    0.6419911670    2.5468829093
C        2.0372215369   -1.2330404600    1.6336384198
C        1.2582606860    0.7055289402    3.8643005168
N        0.1866744421   -1.3071956660    4.6184171062
O        0.4906257727    0.0359969252    4.9505956224
H       -0.2699411853   -2.1082716580    0.5343706460
H       -1.4075340312   -0.8114872891    1.1857614819
H        0.4691246887    1.8091435925    0.6532678116
H        1.0152891549    2.8015730751    2.0896039900
H       -1.0168635735    2.0174721090    3.3885185512
H       -1.5878062651    1.1048702840    1.9226360067
H        2.7142648520   -0.4712865946    1.2312070726
H        2.4785433079   -1.5647254867    2.5822776044
H        2.0426017187   -2.0890312827    0.9565780070
H        1.3162026484    1.7178840667    4.2648770078
H        2.2624076443    0.2730187001    3.8496657083
H       -0.6028518869   -1.5721824720    5.2226904160
H        0.9893763787   -1.9225891481    4.8210295086
H       -0.0848872532   -1.3977640281    3.6082414066
23   
torsion grid (-60,)
C       -0.3432211851   -1.1319680043    0.9644619431
C        0.6442560084   -0.6687734765    1.7525347122
C        0.3347306796    1.9273952942    1.7188716067
C       -0.7823508871    1.4051828122    2.5565817909
C        0.5440990981    0.6329006910    2.5197790135
C        2.0053927924   -1.3404638466    1.7335879455
C        1.3330987423    0.7329561580    3.7948618197
N        0.1859885014   -1.2144992706    4.6224758266
O        0.6185539189    0.0949233583    4.9404179094
H       -0.1965789144   -2.0168604224    0.3521636449
H       -1.3139376059   -0.6534215482    0.8825197568
H        0.2797767428    1.7938834183    0.6438621577
H        0.8632847897    2.8193078249    2.0426077566
H       -1.0152480325    1.9294039239    3.4784833444
H       -1.6464243043    0.9776532937    2.0618693255
H        2.7748569021   -0.6342222370    1.4011647378
H        2.3327946905   -1.7073546785    2.7155505463
H        2.0113972816   -2.1939441573    1.0537701702
H        1.4090190665    1.7557255820    4.1645488134
H        2.3332232499    0.2970424141    3.7451543257
H       -0.5712272725   -1.4274487265    5.2857784733
H        0.9509193298   -1.8942656575    4.7508601289
H       -0.1688971623   -1.2696767160    3.6404098405
23   
torsion grid (-45,)
C       -0.2275051947   -1.0161490784    0.7766978986
C        0.6794559451   -0.6686042721    1.7061102548
C        0.2091668178    1.9066793929    1.7705774061
C       -0.8144672659    1.2894073476    2.6556098392
C        0.5674557948    0.6110948698    2.5134387243
C        1.9761121791   -1.4498517930    1.8140277976
C        1.4212398850    0.7390254767    3.7431385204
N        0.1942811846   -1.1250837845    4.6549328050
O        0.7697458807    0.1312589993    4.9480245567
H       -0.0777336981   -1.8911760881    0.1517647114
H       -1.1365377776   -0.4518241976    0.5904674839
H        0.1031173711    1.7986044833    0.6968179742
H        0.6890728466    2.8262761680    2.0920131592
H       -1.0276832313    1.7797139364    3.6010483325
H       -1.6673222638    0.7960919153    2.2016825961
H        2.8332517978   -0.8168925274    1.5565259969
H        2.1832178728   -1.8451948801    2.8183402138
H        1.9719856499   -2.3015194601    1.1321526342
H        1.5206578893    1.7697092697    4.0836340406
H        2.4128222924    0.2932659303    3.6527992284
H       -0.4938455302   -1.2983903159    5.4000641135
H        0.9057175734   -1.8717514956    4.6663054371
H       -0.2779977337   -1.1090530806    3.7280272142
23   
torsion grid (-30,)
C        1.3182104208   -0.1152750164    0.1034820641
C        0.8407397978   -0.3281405818    1.3418623138
C        1.5677602862    2.0488060728    2.2419886378
C        0.1232455100    2.1614955928    1.8502251911
C        0.6460911526    0.8139229913    2.3218178724
C        0.2565143508   -1.6814134380    1.7056465209
C        0.2745411693    0.4368072173    3.7297535437
N        2.5866508201   -0.2643141900    3.9049627001
O        1.2701267759   -0.4782256319    4.3701172791
H        1.3813854272   -0.9257643196   -0.6161948363
H        1.6603599586    0.8556779360   -0.2448205240
H        2.3168683774    2.0700210835    1.4566348235
H        1.8627415233    2.5428502773    3.1661238854
H       -0.5476149038    2.7113419893    2.5035363053
H       -0.1214194729    2.2191768825    0.7955580232
H        0.6506931369   -2.0989467354    2.6373115104
H       -0.8302479442   -1.6057880084    1.8300702652
H        0.4448343117   -2.4027069324    0.9087812660
H       -0.6301077677   -0.1668456693    3.8097028697
H        0.1875238826    1.3136322230    4.3762177557
H        3.1393394433   -1.0275640341    4.3187093271
H        2.9635652262    0.6426520193    4.2193162682
H        2.6252617961   -0.3143866575    2.8683395649
23   
torsion grid (-15,)
C        1.5608661549   -0.1972242830    0.2314152058
C        0.8691301129   -0.3456545218    1.3754556791
C        1.4724222117    2.0946652102    2.2220249883
C        0.0120235624    2.1037836532    1.8621960951
C        0.6448640436    0.8050126736    2.3341515009
C        0.0943436976   -1.6209876024    1.6446176351
C        0.3381287329    0.4075351290    3.7541204874
N        2.6571448077   -0.2725062131    3.7971168237
O        1.3652317266   -0.5161721729    4.3181945752
H        1.6358183071   -1.0122238377   -0.4824326436
H        2.0597567019    0.7257854787   -0.0492451307
H        2.1957039837    2.1853129066    1.4190142979
H        1.7546240044    2.6053935996    3.1403733444
H       -0.6851747579    2.6106882028    2.5228997038
H       -0.2502867129    2.1349340348    0.8103872038
H        0.3460682167   -2.0850314015    2.6033122133
H       -0.9817495011   -1.4113352487    1.6621884299
H        0.2760336078   -2.3556037946    0.8583254625
H       -0.5615561727   -0.1987301467    3.8650589600
H        0.2784372313    1.2730844796    4.4191485958
H        3.2466942061   -1.0133229705    4.2001796539
H        3.0204722661    0.6496489645    4.0815621055
H        2.6476466006   -0.3452005619    2.7571777741
23   
torsion grid (0,)
C        1.7122998290   -0.2781816757    0.3926712026
C        0.8590938543   -0.3397465917    1.4312113035
C        1.3931194662    2.1483820100    2.1871441190
C       -0.0841447594    2.0741637208    1.9048008773
C        0.6438806365    0.8249015874    2.3705433246
C       -0.0524014452   -1.5323280407    1.6264652851
C        0.4063046438    0.4335999854    3.8072429683
N        2.7204310683   -0.2353403619    3.7646675131
O        1.4444614193   -0.5049538859    4.3134683242
H        1.7944484843   -1.1043000268   -0.3078596588
H        2.3315529920    0.5886075636    0.1808230174
H        2.0615320333    2.2694845269    1.3425421107
H        1.6972893311    2.6914535200    3.0792557314
H       -0.7732522141    2.5567250550    2.5918643216
H       -0.3985854829    2.0743862134    0.8667889218
H        0.1052902309   -2.0297869199    2.5889035486
H       -1.1008326672   -1.2139068620    1.5946836850
H        0.0986928781   -2.2726170814    0.8389447652
H       -0.4957498644   -0.1596548124    3.9620594871
H        0.3896665133    1.3002403883    4.4742552425
H        3.3377168457   -0.9530027270    4.1679293403
H        3.0640372457    0.7010788774    4.0262521965
H        2.6845772855   -0.3316579434    2.7246487747
23   
torsion grid (15,)
C        1.8369131562   -0.3549075187    0.5269961541
C        0.8522641927   -0.3394229680    1.4445400074
C        1.3203014381    2.1780879284    2.1285707371
C       -0.1654983576    2.0279627561    1.9369488162
C        0.6510470560    0.8264778793    2.3820381120
C       -0.1559645052   -1.4593406918    1.5514206380
C        0.4766388199    0.4382535539    3.8296238517
N        2.7839457218   -0.2217484346    3.7312080138
O        1.5177639832   -0.5140196758    4.2909921466
H        1.9408019460   -1.1849436597   -0.1662430687
H        2.5335963279    0.4691168199    0.3941072996
H        1.9266106038    2.3092206766    1.2398005295
H        1.6536937598    2.7549359678    2.9883137331
H       -0.8358421040    2.4897416502    2.6562343583
H       -0.5396078229    1.9983664039    0.9191206479
H       -0.1114047307   -1.9644321162    2.5220851889
H       -1.1714253463   -1.0626790644    1.4397648075
H        0.0040895714   -2.2108482947    0.7762928505
H       -0.4270696264   -0.1417433439    4.0223117895
H        0.4976225484    1.3067906020    4.4951392952
H        3.4210581500   -0.9206749102    4.1364892924
H        3.1082132821    0.7251021522    3.9799445549
H        2.7348688906   -0.3351070463    2.6915425012
23   
torsion grid (30,)
C        1.9294178572   -0.4385517347    0.6443309928
C        0.8425999034   -0.3416059034    1.4335982419
C        1.2466170940    2.1935579743    2.0626687218
C       -0.2368974976    1.9724795892    1.9641478316
C        0.6618341905    0.8180864940    2.3821204625
C       -0.2430761178   -1.3880780955    1.4434054197
C        0.5396641221    0.4335790882    3.8365886493
N        2.8430695538   -0.2169819132    3.7138827730
O        1.5825486673   -0.5227484010    4.2770584291
H        2.0554858344   -1.2722419872   -0.0409600254
H        2.6786312281    0.3494288042    0.5829316776
H        1.7950145769    2.3200044138    1.1359567146
H        1.6062298078    2.8058527428    2.8866084132
H       -0.8822782774    2.4197675263    2.7147970508
H       -0.6709811827    1.9091811152    0.9717656469
H       -0.3293939010   -1.8777367333    2.4195012973
H       -1.2127143982   -0.9246481155    1.2303802703
H       -0.0592585076   -2.1614551637    0.6954611903
H       -0.3623437233   -0.1391803270    4.0579840222
H        0.5830288821    1.3070067127    4.4955085974
H        3.4927276307   -0.9007718620    4.1250204558
H        3.1525985551    0.7377872708    3.9513701550
H        2.7888867870   -0.3467825107    2.6752612107
23   
torsion grid (45,)
C        1.9891449142   -0.5391082902    0.7383986133
C        0.8323325531   -0.3502212947    1.4024530145
C        1.1626955046    2.1956312325    2.0081777463
C       -0.3068068819    1.9011520734    2.0067503595
C        0.6756931088    0.7934420128    2.3755926806
C       -0.3183380502   -1.3179521982    1.3111870380
C        0.6036442134    0.4022907024    3.8325546044
N        2.9072086100   -0.2260825865    3.7101604347
O        1.6465832956   -0.5571898098    4.2552692717
H        2.1275403973   -1.3779578194    0.0617421797
H        2.7805477691    0.2121436777    0.7334865417
H        1.6530797661    2.3216496734    1.0488550612
H        1.5468382915    2.8360193788    2.7991773205
H       -0.9221002225    2.3255731520    2.7951119695
H       -0.8037555020    1.8086836370    1.0466698344
H       -0.5475878840   -1.7659743529    2.2844582999
H       -1.2234095406   -0.7964512902    0.9816316903
H       -0.1101719700   -2.1258041034    0.6073414370
H       -0.2947673648   -0.1672961155    4.0768711347
H        0.6632355523    1.2776792036    4.4886685639
H        3.5670794472   -0.8949520716    4.1296143543
H        3.1933756756    0.7357504624    3.9493655259
H        2.8649374105   -0.3613994859    2.6723986477
23   
torsion grid (60,)
C        2.0072932054   -0.6733085728    0.8295181612
C        0.8169542189   -0.3485779825    1.3679904703
C        1.1068807341    2.2056095673    1.9690435199
C       -0.3432205924    1.8588246118    2.0609940611
C        0.7019168824    0.7821227853    2.3648088481
C       -0.4091217028   -1.2012119272    1.1707436179
C        0.6772616324    0.3833871060    3.8218361835
N        3.0034209910   -0.1446855322    3.7342377861
O        1.7487055489   -0.5401822236    4.2452034956
H        2.1274630369   -1.5293488841    0.1713409133
H        2.8622253244    0.0069526689    0.8730957934
H        1.5390173487    2.3336485391    0.9819720095
H        1.5209076662    2.8628639354    2.7309676427
H       -0.9200285572    2.2631582240    2.8880615127
H       -0.9004498259    1.7513654846    1.1367394788
H       -0.8041896443   -1.5624283496    2.1269594189
H       -1.2080106372   -0.6166878972    0.7025540118
H       -0.2020838232   -2.0656076080    0.5371813178
H       -0.1994036888   -0.2147213317    4.0778560870
H        0.7136424440    1.2627823730    4.4751089324
H        3.6871360083   -0.7781711174    4.1704305017
H        3.2332482260    0.8312476022    3.9782277559
H        2.9963183216   -0.2820434946    2.7002223886
23   
torsion grid (75,)
C        1.8024232801   -1.0442082132    0.9811610348
C        0.6441551684   -0.4725667642    1.3363722113
C        1.0768749045    2.0548735975    2.0247534710
C       -0.3836623046    1.7661089808    2.1787069281
C        0.6025655333    0.6254272853    2.3781865962
C       -0.6843757215   -0.9926725707    0.8440515423
C        0.7035410119    0.1619550347    3.8083455514
N        3.0701066225    0.3661438083    3.8352225201
O        1.9898399832   -0.4926195166    4.1338729767
H        1.8411156012   -1.8806846684    0.2893251212
H        2.7719215667   -0.6683750907    1.3068345766
H        1.4655464799    2.2030611662    1.0222998956
H        1.5358792537    2.6824385153    2.7887287323
H       -0.8941745833    2.1664404575    3.0494510580
H       -0.9891946011    1.7388085010    1.2807813304
H       -1.3600476156   -1.2074822538    1.6801467676
H       -1.1906397603   -0.2566924771    0.2102401797
H       -0.5597769466   -1.9059385236    0.2588898590
H        0.0081482495   -0.6489294846    4.0324634828
H        0.5499964235    0.9792528430    4.5232292016
H        3.9036679781   -0.2350452186    3.7815285966
H        3.2005097835    1.0704933978    4.5793062112
H        2.9026414561    0.8370554333    2.9264120435
23   
torsion grid (90,)
C        1.7097038867   -1.2917874332    1.1953857020
C        0.6084004529   -0.5517519001    1.3885992450
C        0.9804755493    1.9904807374    2.0274503432
C       -0.4578007938    1.6642017851    2.2884516193
C        0.5665776146    0.5511349324    2.4299723490
C       -0.6510608834   -0.8166626263    0.5988727495
C        0.8034789805    0.1364061631    3.8595064676
N        3.1485498732    0.5405073130    3.7254763313
O        2.1640055915   -0.3890117200    4.1267710587
H        1.7258224975   -2.1010292170    0.4713391684
H        2.6371868151   -1.1469336968    1.7431951948
H        1.2921622600    2.1347048323    0.9975571727
H        1.4712853010    2.6443320304    2.7482028387
H       -0.9131286897    2.0584985090    3.1918029927
H       -1.1298202486    1.6153311690    1.4411338895
H       -1.5143898117   -0.9422536032    1.2614993405
H       -0.8841123950    0.0112319080   -0.0806252811
H       -0.5475008185   -1.7182276774   -0.0078305950
H        0.2021507165   -0.7280628087    4.1459024342
H        0.6230699966    0.9569432398    4.5640087352
H        4.0385218104    0.0234316864    3.7218620775
H        3.2135931820    1.3272070261    4.3917097149
H        2.9311796444    0.9011693006    2.7780229535
23   
torsion grid (105,)
C        1.6135367767   -1.4643040830    1.5233624346
C        0.5958122689   -0.5815747296    1.5424343570
C        0.8135109051    1.9540772347    2.1411966831
C       -0.5992616418    1.5773286410    2.4798765117
C        0.4759513923    0.5106947443    2.5830740214
C       -0.3996552729   -0.5580741549    0.4071145231
C        0.8746972159    0.1822620196    3.9995538197
N        3.1751956867    0.5524269186    3.3509493400
O        2.3080391032   -0.1895940768    4.1808501386
H        1.6899735249   -2.1921809970    0.7212969129
H        2.3013404341   -1.6176683701    2.3498983594
H        1.0631103438    2.1080450432    1.0955188390
H        1.3222770736    2.6226712090    2.8338321624
H       -1.0227984494    1.9576162978    3.4040676615
H       -1.3134155990    1.4918894771    1.6710569478
H       -1.4158929409   -0.7140335694    0.7847450806
H       -0.3962054767    0.3987709119   -0.1277351077
H       -0.1825514743   -1.3441735799   -0.3176359961
H        0.3886936845   -0.7177762282    4.3798101705
H        0.6839443521    1.0212382180    4.6748705883
H        4.1131295105    0.1773603517    3.5493930325
H        3.1572424238    1.5600002728    3.5684199483
H        2.9383798571    0.3957968884    2.3510176909
23   
torsion grid (120,)
C        1.4977842890   -1.5518168648    1.7175242739
C        0.6044593156   -0.5466886902    1.5929000879
C        0.7056317011    1.9958280096    2.1935595090
C       -0.6774592854    1.5439433323    2.5530759972
C        0.4553559316    0.5328741858    2.6336514404
C       -0.2153425699   -0.4169091064    0.3316660609
C        0.9163608723    0.2265645981    4.0353173408
N        3.1599514089    0.5190850024    3.1358864667
O        2.3858521832   -0.0297715787    4.1797529955
H        1.6051892020   -2.2888292772    0.9273933652
H        2.0180042443   -1.7816540800    2.6446374556
H        0.9307275468    2.1787706622    1.1475428115
H        1.1975199742    2.6718880711    2.8910200631
H       -1.1060762154    1.8920200517    3.4872667971
H       -1.3985863060    1.4193009850    1.7551438310
H       -1.2732114980   -0.5959445580    0.5527386357
H       -0.1438752402    0.5773586531   -0.1214161920
H        0.0979214488   -1.1493346849   -0.4137843573
H        0.4959672557   -0.7016285020    4.4259561748
H        0.6949625784    1.0511577070    4.7159413864
H        4.1242365592    0.2293756721    3.3482461440
H        3.1071304214    1.5470629643    3.1073866596
H        2.8582783715    0.1068206643    2.2215021507
23   
torsion grid (135,)
C        1.3805161584   -1.6365815817    1.8264508994
C        0.6328854030   -0.5338719177    1.6040497723
C        0.6041885621    2.0224827451    2.2202438519
C       -0.7330843777    1.4714566380    2.6013176015
C        0.4752333623    0.5405097155    2.6455303098
C       -0.0618655256   -0.3471448859    0.2758702561
C        0.9664862893    0.2474508575    4.0385537516
N        3.1715879417    0.4797222297    3.0368213813
O        2.4449291513    0.0288035918    4.1583511958
H        1.4821931779   -2.3969176438    1.0579144110
H        1.8094512826   -1.8851201312    2.7944793858
H        0.7913395653    2.2424846674    1.1746067756
H        1.0734439682    2.7123841298    2.9193367431
H       -1.1699487937    1.7722819177    3.5479444681
H       -1.4555831579    1.2991555115    1.8133670299
H       -1.1412661559   -0.4904337872    0.3938669262
H        0.0875550101    0.6489760945   -0.1512031221
H        0.2894745608   -1.0808997205   -0.4511924606
H        0.5641867497   -0.6842169895    4.4398957662
H        0.7432542164    1.0709459342    4.7189987977
H        4.1479687124    0.2256859205    3.2385314042
H        3.0977885810    1.4990076303    2.9092520595
H        2.8366992604   -0.0252933742    2.1805905027
23   
torsion grid (150,)
C        1.2430178159   -1.7091484623    1.9121722417
C        0.6466678817   -0.5321035185    1.6255222860
C        0.4632328667    2.0261104189    2.2578798136
C       -0.8070114977    1.3687029810    2.6898458109
C        0.4770096885    0.5372858198    2.6715691836
C        0.1169364423   -0.2719384959    0.2340356543
C        1.0134081945    0.2633419380    4.0518979815
N        3.1745385333    0.4449080526    2.9637809136
O        2.4916628863    0.0353778143    4.1272511283
H        1.3379181761   -2.4782648337    1.1516064162
H        1.5817670196   -1.9833997695    2.9078706900
H        0.5813683558    2.2703449850    1.2083840988
H        0.9116502902    2.7441944430    2.9413375926
H       -1.2221262965    1.6216273142    3.6602147951
H       -1.5501067069    1.1401070620    1.9360659740
H       -0.9715695973   -0.1580725461    0.2429843584
H        0.5332844410    0.6359904244   -0.2128801866
H        0.3525662906   -1.1071285001   -0.4271716253
H        0.6146739069   -0.6555928628    4.4848577895
H        0.8175849028    1.1002852492    4.7243813501
H        4.1603701391    0.2086451126    3.1391478811
H        3.0841264689    1.4575521628    2.7964707061
H        2.8086236311   -0.0979773088    2.1448142549
23   
torsion grid (165,)
C        1.2968704343   -1.5576670935    1.7969077877
C        0.7326876006   -0.3486772985    1.5710140487
C        0.2352914606    2.1325413072    2.2960112016
C       -0.8477866920    1.2731871506    2.8630199369
C        0.5540383108    0.6781008757    2.6579282863
C        0.2710048686    0.0095423669    0.1783034777
C        1.3645228197    0.5219741195    3.9194798037
N        3.5083143762    0.2339607122    2.8508555075
O        2.7570730976    1.0083824397    3.7759037339
H        1.3866254511   -2.2843776851    0.9950892330
H        1.5551810507   -1.9220345227    2.7889209930
H        0.1808829415    2.4017484708    1.2481850461
H        0.6720086014    2.8979342078    2.9300791675
H       -1.1713972364    1.4341597254    3.8866308108
H       -1.6298414621    0.9149451222    2.2032294552
H       -0.7747826317    0.3322896539    0.1766544028
H        0.8588683984    0.8328895015   -0.2405015754
H        0.3546064063   -0.8461373948   -0.4931348399
H        1.3898567712   -0.4952186816    4.3195008862
H        1.0151556170    1.1882195471    4.7086956750
H        4.0831601783   -0.4506597855    3.3646753237
H        4.1262146024    0.8906450930    2.3553165625
H        2.8778945473   -0.2701005259    2.1682600598
23   
torsion grid (180,)
C        1.1778747095   -1.5623074908    1.8428462435
C        0.7524855964   -0.3080358484    1.5711138251
C        0.0713211763    2.1302254319    2.3160880315
C       -0.8905796232    1.1675796356    2.9358686731
C        0.5532543295    0.7213263405    2.6571445325
C        0.4187548077    0.0875762196    0.1539435880
C        1.4291353942    0.6282693373    3.8785192915
N        3.5319689838    0.1482841330    2.8243573820
O        2.8175673769    1.0795252198    3.6237903211
H        1.2749830616   -2.3027641589    1.0541886594
H        1.3291868580   -1.9286575830    2.8562148926
H       -0.0631427054    2.3900446214    1.2731670366
H        0.4570003075    2.9409201829    2.9266812359
H       -1.1828211511    1.3003133353    3.9732892678
H       -1.6587475874    0.7244224611    2.3109999608
H       -0.6324662788    0.3853924018    0.0715903369
H        1.0169102205    0.9420132615   -0.1791440334
H        0.5809001821   -0.7425748481   -0.5355699044
H        1.4687213474   -0.3660861545    4.3339544992
H        1.1272152945    1.3404745360    4.6469909452
H        4.0300693687   -0.5218862126    3.4300514162
H        4.2188556141    0.6960192077    2.2887768199
H        2.8787066386   -0.3694043020    2.1745464575
