22   
torsion grid (-90,)
C        1.8386693748   -0.8767336411   -0.0774649450
C        2.8022079849   -1.7357634983    1.9540243280
C        0.8066882907   -0.3122627179    0.6564560199
C        1.7725662133   -1.1754195502    2.7089113391
C        2.8732865722   -1.5979452744    0.5564142567
C        0.7572132735   -0.4546365959    2.0594911048
C        4.4515399422   -1.9087102258   -1.4606372735
C        4.0005748968   -2.1711418293   -0.1873220854
C       -0.6151933006    0.1946388859    4.0643124461
N        0.0779431288   -0.3600745972    4.9860623011
N       -0.3173284043    0.1579906951    2.7238654050
O       -1.7777559305    0.9278363218    4.2095134351
H        1.8745180242   -0.7336475743   -1.1538928186
H        3.5828905402   -2.2906684692    2.4701185010
H        0.0316770912    0.2582512803    0.1470664985
H        1.7433782321   -1.2833566715    3.7845752439
H        5.5453643528   -2.0128438610   -1.4824366561
H        4.1604178519   -2.3900317958   -2.3968710039
H        4.8274290427   -2.3116517525    0.5186239741
H       -0.3171944791   -0.2098313964    5.9136956876
H       -0.9807181684    0.6512898368    2.1411503078
H       -2.0067340553    0.9618756319    5.1515162186
22   
torsion grid (-75,)
C        1.8760525681   -0.8619366122   -0.0675223857
C        2.8252178508   -1.7201580934    1.9715884260
C        0.8324568416   -0.3061083699    0.6572622111
C        1.7845617845   -1.1660510543    2.7167581529
C        2.9065270435   -1.5797042236    0.5753818001
C        0.7708636934   -0.4511341076    2.0591843156
C        4.4408458484   -1.9299356121   -1.4467177403
C        4.0416134425   -2.1522693377   -0.1587423473
C       -0.6247624503    0.1839436986    4.0519896436
N        0.0633552097   -0.3665656678    4.9801688403
N       -0.3148993985    0.1523813653    2.7144598068
O       -1.7943872097    0.9078757851    4.1875907806
H        1.9192614686   -0.7157418463   -1.1432189791
H        3.6035401553   -2.2725617164    2.4940239160
H        0.0584065786    0.2596392977    0.1411351715
H        1.7453956946   -1.2760344797    3.7919104201
H        5.5140641731   -2.0989245469   -1.5834956741
H        3.9573266366   -2.3237714185   -2.3427658835
H        4.8769461505   -2.3155287975    0.5302586881
H       -0.3425269934   -0.2206711381    5.9038644830
H       -0.9765654240    0.6416926358    2.1264733177
H       -2.0318531898    0.9387274403    5.1275853214
22   
torsion grid (-60,)
C        1.9092983193   -0.8493507416   -0.0596834826
C        2.8465618183   -1.7016129513    1.9855240580
C        0.8561043982   -0.3022329897    0.6585409746
C        1.7970540207   -1.1557096999    2.7249280654
C        2.9378442293   -1.5623123371    0.5901825539
C        0.7837113949   -0.4480996331    2.0595833625
C        4.4267425586   -1.9639408994   -1.4363062405
C        4.0798347398   -2.1351650077   -0.1338969264
C       -0.6345126955    0.1745661602    4.0406899257
N        0.0510528869   -0.3711051156    4.9736842921
N       -0.3127840284    0.1464309285    2.7060861980
O       -1.8114881566    0.8884637982    4.1676427748
H        1.9568080287   -0.7008910989   -1.1347850845
H        3.6242328625   -2.2497239963    2.5134129229
H        0.0818535235    0.2578316030    0.1365565839
H        1.7507149323   -1.2672820846    3.7996378496
H        5.4689205775   -2.1856280731   -1.6742319682
H        3.7925176501   -2.2346021895   -2.2817016242
H        4.9201574507   -2.3300266935    0.5385751855
H       -0.3636540502   -0.2300200436    5.8941928362
H       -0.9732302497    0.6307686778    2.1127200602
H       -2.0562997365    0.9168055882    5.1058199678
22   
torsion grid (-45,)
C        1.9322362368   -0.8412694119   -0.0549947792
C        2.8672699845   -1.6816233108    1.9947057280
C        0.8711657922   -0.3012956715    0.6574426090
C        1.8099534460   -1.1429155438    2.7288566578
C        2.9625124527   -1.5466018776    0.5995521903
C        0.7938466037   -0.4450846390    2.0582195512
C        4.4168894172   -1.9976020231   -1.4261726661
C        4.1106367795   -2.1213001682   -0.1151353730
C       -0.6406976391    0.1669092742    4.0313059421
N        0.0454203029   -0.3712171232    4.9683402191
N       -0.3115986219    0.1399701346    2.6986755510
O       -1.8250719773    0.8698823157    4.1515647717
H        1.9781663699   -0.6946810512   -1.1303139637
H        3.6468187403   -2.2225404032    2.5273027651
H        0.0939097286    0.2499412159    0.1305275985
H        1.7599383976   -1.2534773483    3.8035138847
H        5.4209053110   -2.2824898932   -1.7388719751
H        3.6855460920   -2.1056106148   -2.2265217079
H        4.9372226398   -2.3727536401    0.5528984946
H       -0.3753647299   -0.2331302305    5.8865373756
H       -0.9734682975    0.6172731917    2.1012605133
H       -2.0747965549    0.8967800193    5.0884788979
22   
torsion grid (-30,)
C        1.9513533830   -0.8273688609   -0.0518594092
C        2.8861232891   -1.6573480810    2.0006525571
C        0.8832025663   -0.2960839344    0.6570114913
C        1.8212406478   -1.1285046780    2.7312628422
C        2.9842970818   -1.5253929071    0.6055199142
C        0.8013614492   -0.4398755105    2.0572842818
C        4.4017942453   -2.0457850257   -1.4212324682
C        4.1373740631   -2.1005370792   -0.1011805471
C       -0.6469711682    0.1571711829    4.0246178750
N        0.0412240953   -0.3741841151    4.9640432395
N       -0.3126004445    0.1341911999    2.6933352446
O       -1.8390459469    0.8478301463    4.1408796108
H        1.9947342536   -0.6813783475   -1.1272734032
H        3.6686277977   -2.1907774410    2.5364740825
H        0.1026819775    0.2471244448    0.1266165825
H        1.7685294598   -1.2398288448    3.8057091419
H        5.3664547078   -2.3918119894   -1.7857631616
H        3.6223929723   -1.9950183225   -2.1791292598
H        4.9521344405   -2.4014392309    0.5591207001
H       -0.3846765440   -0.2412148982    5.8806354754
H       -0.9767464112    0.6051818918    2.0934679598
H       -2.0920454410    0.8722136014    5.0769795351
22   
torsion grid (-15,)
C        1.9559447886   -0.8261033427   -0.0517437433
C        2.8991333821   -1.6377426253    2.0028881733
C        0.8841763498   -0.3000591016    0.6556590303
C        1.8301981116   -1.1153293668    2.7324367943
C        2.9950086078   -1.5133033334    0.6070059360
C        0.8044484328   -0.4378433795    2.0565693533
C        4.3960364254   -2.0810669617   -1.4158886976
C        4.1513903302   -2.0888201432   -0.0937620316
C       -0.6496557173    0.1530180533    4.0216783373
N        0.0445850410   -0.3672003136    4.9629013580
N       -0.3149331601    0.1280641654    2.6905943100
O       -1.8490491372    0.8314204601    4.1354491992
H        1.9905699904   -0.6888814214   -1.1285978350
H        3.6866126711   -2.1617520455    2.5406729317
H        0.0973295251    0.2315300925    0.1228509936
H        1.7792659445   -1.2231872365    3.8073228219
H        5.3269731191   -2.4822702173   -1.8067429334
H        3.6330673136   -1.8422372444   -2.1534434266
H        4.9384297598   -2.4629865704    0.5617636842
H       -0.3826638001   -0.2356070831    5.8790588948
H       -0.9839975075    0.5895650551    2.0888462115
H       -2.1014299963    0.8579557610    5.0716529229
22   
torsion grid (0,)
C        1.9448363975   -0.8457576401   -0.0549386823
C        2.9065355494   -1.6245615406    2.0033915264
C        0.8729995716   -0.3203693634    0.6527610822
C        1.8371221989   -1.1030807034    2.7330504424
C        2.9943443248   -1.5147921810    0.6057977494
C        0.8026290689   -0.4407588610    2.0557799842
C        4.4020144893   -2.0828775609   -1.4124075839
C        4.1526566030   -2.0903222978   -0.0921197277
C       -0.6475095831    0.1557932214    4.0216445652
N        0.0555378105   -0.3490893531    4.9646970370
N       -0.3190860525    0.1212282891    2.6892208630
O       -1.8523163455    0.8246254011    4.1346626558
H        1.9632760624   -0.7326688769   -1.1350012184
H        3.7013463421   -2.1356007352    2.5428626463
H        0.0752047103    0.1920493379    0.1174868599
H        1.7924484346   -1.2005945821    3.8091944859
H        5.3000564890   -2.5451048185   -1.8118420401
H        3.7320757005   -1.6235589438   -2.1351710965
H        4.8810598783   -2.5747105913    0.5585216820
H       -0.3690195811   -0.2128748238    5.8814347355
H       -0.9944237817    0.5719947939    2.0863433312
H       -2.1003478128    0.8581950305    5.0718029872
22   
torsion grid (15,)
C        1.9323549674   -0.8679101133   -0.0564782219
C        2.9131094361   -1.6132431526    2.0057347264
C        0.8604821619   -0.3420953085    0.6509377306
C        1.8436485920   -1.0918901081    2.7352522600
C        2.9921656333   -1.5184140633    0.6064720731
C        0.8007830176   -0.4447540052    2.0558499045
C        4.3999403907   -2.0737087516   -1.4150665833
C        4.1495681769   -2.0920687173   -0.0941139924
C       -0.6457530677    0.1605226983    4.0224671538
N        0.0677099209   -0.3261133117    4.9672571424
N       -0.3228123283    0.1136383984    2.6890746266
O       -1.8570314278    0.8179461392    4.1338168515
H        1.9377505268   -0.7823794313   -1.1392018393
H        3.7152922236   -2.1113278135    2.5464155560
H        0.0517061492    0.1507928693    0.1137738566
H        1.8050375040   -1.1779929089    3.8126158754
H        5.2616645024   -2.5967729122   -1.8202874905
H        3.8741435377   -1.4163116463   -2.1039179113
H        4.8111605556   -2.6877744574    0.5356346866
H       -0.3536108836   -0.1844315429    5.8846488725
H       -1.0057443739    0.5503632321    2.0844290383
H       -2.1001247405    0.8610881079    5.0718579692
22   
torsion grid (30,)
C        1.9318671394   -0.8617454491   -0.0559718434
C        2.9235511320   -1.5899829762    2.0083583048
C        0.8570649287   -0.3422051108    0.6515195384
C        1.8504790690   -1.0757828130    2.7374443829
C        2.9977122443   -1.5013172543    0.6083280714
C        0.8010658517   -0.4398719523    2.0570495628
C        4.3716425970   -2.0993483951   -1.4268799200
C        4.1537292114   -2.0715522984   -0.0975194774
C       -0.6476150542    0.1539918841    4.0240749579
N        0.0700059286   -0.3242611307    4.9700275613
N       -0.3269391921    0.1096366519    2.6899583624
O       -1.8647819470    0.8001092394    4.1354928305
H        1.9346191234   -0.7879464381   -1.1396086469
H        3.7313483598   -2.0785802083    2.5493701419
H        0.0415121552    0.1389728758    0.1139800557
H        1.8136261979   -1.1587699871    3.8151131681
H        5.2020796020   -2.6822440778   -1.8190886337
H        3.9956127258   -1.3347261586   -2.1039071882
H        4.7695324020   -2.7243831920    0.5229432511
H       -0.3531759625   -0.1855688238    5.8870453040
H       -1.0142613866    0.5400627397    2.0857098973
H       -2.1072346516    0.8426760758    5.0737326040
22   
torsion grid (45,)
C        1.9337302237   -0.8387079481   -0.0547214036
C        2.9353634118   -1.5613379408    2.0084949131
C        0.8549641166   -0.3299778888    0.6541242036
C        1.8575042012   -1.0588446805    2.7384391662
C        3.0048269724   -1.4717105033    0.6081783733
C        0.8016469305   -0.4313527481    2.0597244229
C        4.3394194099   -2.1342673018   -1.4416371581
C        4.1585351905   -2.0365545228   -0.1053646674
C       -0.6540471501    0.1433208728    4.0285161982
N        0.0691415532   -0.3295058495    4.9728657095
N       -0.3315066051    0.1047747173    2.6945656594
O       -1.8781138841    0.7761321881    4.1409120781
H        1.9370182719   -0.7676542931   -1.1386282009
H        3.7483989410   -2.0430496179    2.5478261895
H        0.0338206565    0.1436459600    0.1183664841
H        1.8215987477   -1.1443541548    3.8159388236
H        5.1332814054   -2.7904964540   -1.7967631452
H        4.1282684120   -1.3225838003   -2.1371020585
H        4.7371234573   -2.7264427910    0.5127271449
H       -0.3553172923   -0.1981564578    5.8903580004
H       -1.0231105654    0.5294946357    2.0911670092
H       -2.1211059302    0.8147917795    5.0791845426
22   
torsion grid (60,)
C        1.9294627195   -0.8136530919   -0.0556445347
C        2.9431616919   -1.5323427895    2.0050670867
C        0.8481224760   -0.3163397459    0.6569125239
C        1.8624516581   -1.0410487984    2.7377904756
C        3.0064463972   -1.4407542266    0.6042455730
C        0.7991995545   -0.4214508919    2.0626177035
C        4.3160233857   -2.1589492791   -1.4582148288
C        4.1562508522   -1.9995614804   -0.1184034214
C       -0.6590455205    0.1327570023    4.0358483782
N        0.0711267509   -0.3356125730    4.9769372310
N       -0.3378517149    0.1010989125    2.7012107153
O       -1.8892294531    0.7527216184    4.1521453122
H        1.9321173837   -0.7445035860   -1.1397948139
H        3.7617321956   -2.0082701917    2.5410986504
H        0.0206421461    0.1497583104    0.1243375592
H        1.8291381277   -1.1295018527    3.8151315849
H        5.0695278868   -2.8914472173   -1.7540933027
H        4.2961909027   -1.3416888781   -2.1805981236
H        4.6945659770   -2.7289341705    0.4936331667
H       -0.3525672035   -0.2118148861    5.8958228307
H       -1.0347943194    0.5205443209    2.1002404900
H       -2.1312314198    0.7861566958    5.0908820283
22   
torsion grid (75,)
C        1.9245068792   -0.7741556733   -0.0576175972
C        2.9484741240   -1.5008600351    1.9957616938
C        0.8397674278   -0.2912868324    0.6588816319
C        1.8650654791   -1.0232030040    2.7329325044
C        3.0071713698   -1.4005718522    0.5950218159
C        0.7949905771   -0.4076775264    2.0641793296
C        4.2946686114   -2.1912152187   -1.4752417827
C        4.1538803044   -1.9520664184   -0.1369162388
C       -0.6637306135    0.1168093109    4.0445265050
N        0.0727802573   -0.3516335122    4.9805268657
N       -0.3453387373    0.0990865181    2.7087040493
O       -1.8995691241    0.7236308397    4.1678898298
H        1.9275110794   -0.6986057981   -1.1414437002
H        3.7712716682   -1.9748911866    2.5269237388
H        0.0073103700    0.1715659518    0.1312268095
H        1.8339570213   -1.1198690605    3.8096186849
H        5.0129344199   -2.9925926679   -1.6784355026
H        4.4588047797   -1.4382408677   -2.2484407598
H        4.6648103707   -2.6921954016    0.4880173191
H       -0.3503924054   -0.2397199669    5.9011802763
H       -1.0475198863    0.5167343113    2.1125348333
H       -2.1399134985    0.7481212913    5.1073419789
22   
torsion grid (90,)
C        1.9177812851   -0.7344769584   -0.0623580301
C        2.9521018181   -1.4720036959    1.9841496716
C        0.8312537745   -0.2669901091    0.6607650217
C        1.8677492096   -1.0078176804    2.7275942303
C        3.0056398067   -1.3607051721    0.5834347060
C        0.7913975155   -0.3952512922    2.0655079170
C        4.2823945312   -2.2069737230   -1.4922587260
C        4.1500318475   -1.9035988883   -0.1568152972
C       -0.6672530759    0.1010700395    4.0532200827
N        0.0750372287   -0.3678351279    4.9842777672
N       -0.3513422119    0.0962597720    2.7164277962
O       -1.9079831142    0.6960447480    4.1830302896
H        1.9196448737   -0.6514260025   -1.1457034768
H        3.7790382558   -1.9457174697    2.5091035865
H       -0.0065295000    0.1932633370    0.1393139935
H        1.8396269924   -1.1135211820    3.8035148476
H        4.9445251147   -3.0776563438   -1.5981772587
H        4.6256557503   -1.5624273897   -2.3044434253
H        4.6354377177   -2.6506051458    0.4819943464
H       -0.3473593061   -0.2668530197    5.9065503617
H       -1.0584462226    0.5124587778    2.1250159020
H       -2.1469618166    0.7119257272    5.1230279789
