18   
torsion grid (-165,)
C        0.2788138962    0.6435547186   -0.5409836935
C        0.2226993506   -0.6722200421   -0.3798771157
C        0.9846251296   -2.9887552402   -0.4792764466
C        2.0422591546   -1.4164629944    1.0935566496
C        2.4565060633   -1.2170050624   -1.3381565375
N        1.4266322136   -1.5562567315   -0.2847663948
H       -0.6509445775    1.2031439545   -0.5679192308
H        1.1961528028    1.2121584479   -0.6580706314
H       -0.7059254926   -1.2161600442   -0.2486514646
H        1.8569727854   -3.6381642298   -0.4106222292
H        0.2678772213   -3.2459468951    0.3005210717
H        0.5220187844   -3.0826107814   -1.4619351441
H        2.8791255390   -2.1114724713    1.1753857246
H        2.3837417126   -0.3904623928    1.2203695120
H        1.2820260506   -1.6473552885    1.8393878665
H        3.2760725247   -1.9316656415   -1.2603395240
H        1.9854979175   -1.2786510621   -2.3183404021
H        2.8335413775   -0.2111512691   -1.1655840202
18   
torsion grid (-150,)
C        0.2416741478    0.6193547296   -0.6641794863
C        0.2288412778   -0.6531472954   -0.2884567824
C        0.9691280213   -2.9624286348   -0.5142417157
C        2.0430980071   -1.4701646146    1.1277567654
C        2.4609702570   -1.1655441235   -1.2873681118
N        1.4265624296   -1.5432373255   -0.2568171217
H       -0.6845673330    1.1825092473   -0.6067113588
H        1.1111248510    1.1440205990   -1.0456721358
H       -0.6539115458   -1.1460515128    0.1046873960
H        1.8348669551   -3.6232783138   -0.4742456033
H        0.2496047040   -3.2461089229    0.2534696547
H        0.5040751936   -3.0061615224   -1.4992245987
H        2.8779923070   -2.1705840555    1.1766383892
H        2.3842056052   -0.4506342153    1.3008729748
H        1.2838684258   -1.7364270932    1.8629589018
H        3.2639758412   -1.9015013008   -1.2502177503
H        1.9929066883   -1.1621108810   -2.2710247027
H        2.8643387419   -0.1819394584   -1.0545982895
18   
torsion grid (-135,)
C        0.1832164020    0.5742406301   -0.7694789559
C        0.2436110693   -0.6231812680   -0.2010145935
C        0.9456937420   -2.9266568296   -0.5453597134
C        2.0508500259   -1.5237241299    1.1587255940
C        2.4645849786   -1.1177992359   -1.2365927962
N        1.4273562508   -1.5272811137   -0.2237851329
H       -0.7299319043    1.1509129079   -0.6598636119
H        0.9788846685    1.0236329331   -1.3531317870
H       -0.5676537510   -1.0427037728    0.3851100186
H        1.7999825454   -3.6037128463   -0.5310086548
H        0.2177361250   -3.2306821319    0.2064866903
H        0.4828477655   -2.9167437283   -1.5320079791
H        2.8824325705   -2.2294471906    1.1696800080
H        2.3983677315   -0.5151244032    1.3785666060
H        1.2958597743   -1.8233839971    1.8854463730
H        3.2653407057   -1.8566788052   -1.2199747046
H        2.0046234592   -1.0856245531   -2.2236297617
H        2.8662511471   -0.1418180720   -0.9689380498
18   
torsion grid (-120,)
C        0.1425714288    0.5116182581   -0.8799576834
C        0.2884474535   -0.5806809839   -0.1409166031
C        0.9282036531   -2.8857420403   -0.5811903879
C        2.0709074873   -1.5778863375    1.1798312860
C        2.4962638104   -1.0916884939   -1.1939051464
N        1.4469611933   -1.5136222905   -0.1998463408
H       -0.7533830532    1.1088491697   -0.7422146062
H        0.8551463276    0.8602969652   -1.6189042323
H       -0.4448566859   -0.9034989122    0.5912712747
H        1.7623871462   -3.5880695096   -0.5815619156
H        0.1804719751   -3.1951557533    0.1488744473
H        0.4787215686   -2.8225945026   -1.5716175894
H        2.8929549452   -2.2940294325    1.1595510020
H        2.4333828524   -0.5844951861    1.4421942569
H        1.3135757973   -1.8997870595    1.8944200376
H        3.3025568729   -1.8241921465   -1.1672436874
H        2.0572296929   -1.0643253295   -2.1903652223
H        2.8801587097   -0.1108151010   -0.9164152428
18   
torsion grid (-105,)
C        0.0629749997    0.4308457202   -0.9538485510
C        0.3227794816   -0.5338928978   -0.0806747246
C        0.9057762605   -2.8385112790   -0.6141069389
C        2.0800586553   -1.6276305640    1.1989939620
C        2.5179326143   -1.0579567248   -1.1507326171
N        1.4565066872   -1.4960263646   -0.1741921649
H       -0.8130276229    1.0505552554   -0.7896012865
H        0.6709542470    0.6622776732   -1.8213191304
H       -0.3121251154   -0.7467780163    0.7733640853
H        1.7210465049   -3.5629634276   -0.6305479405
H        0.1392723669   -3.1532261811    0.0941060734
H        0.4707460442   -2.7243368095   -1.6059678864
H        2.8940785728   -2.3508385227    1.1471076214
H        2.4555196444   -0.6511724141    1.5043875020
H        1.3204251431   -1.9728612613    1.9001356116
H        3.3303749839   -1.7834036302   -1.1171753413
H        2.0982033594   -1.0315856602   -2.1549495176
H        2.8823015080   -0.0727686739   -0.8617875947
18   
torsion grid (-90,)
C       -0.2498814818    0.1320455651   -0.9434909278
C        0.6441205063   -0.2412639048   -0.0367986079
C        0.8872353312   -2.6373158378    0.3897875947
C        2.8268655122   -1.1153585002    0.6031538093
C        1.9414481085   -1.6702531261   -1.6185363650
N        1.5663039917   -1.4068880432   -0.1795020169
H       -0.8975953503    0.9723622865   -0.7138601627
H       -0.3760828766   -0.3312186357   -1.9162283635
H        0.7346640063    0.2320211787    0.9351156643
H        1.5829868900   -3.4760807011    0.3396141939
H        0.6117136790   -2.4376538328    1.4253594997
H       -0.0063583216   -2.8411776246   -0.1979164279
H        3.5013952392   -1.9666611551    0.5131792239
H        3.2913324761   -0.2182333767    0.1937692365
H        2.5651212047   -0.9586461457    1.6495360627
H        2.6710098851   -2.4796624895   -1.6380127678
H        1.0568320993   -1.9708015491   -2.1763857710
H        2.3681606746   -0.7621677058   -2.0425739685
18   
torsion grid (-75,)
C       -0.3257111556    0.0475707264   -0.8939725060
C        0.7026932915   -0.1883693958   -0.0895508174
C        0.8536841466   -2.6033043806    0.3500724441
C        2.8267844562   -1.1486731935    0.6371618828
C        2.0056018372   -1.6542430121   -1.6210526457
N        1.5866025834   -1.3921769538   -0.1913708251
H       -0.9262539792    0.9353875104   -0.7224015073
H       -0.6136243894   -0.5845134981   -1.7283658873
H        0.9614138090    0.4502625433    0.7474860711
H        1.5273580452   -3.4609428506    0.3234991948
H        0.5441746710   -2.3944640954    1.3738899385
H       -0.0221559672   -2.7863831714   -0.2700338834
H        3.4755717930   -2.0210633148    0.5635050913
H        3.3374748958   -0.2661418755    0.2516078670
H        2.5328873048   -0.9907930873    1.6748706029
H        2.6984889861   -2.4959062749   -1.6276953676
H        1.1286808840   -1.9000056208   -2.2162423014
H        2.4861433831   -0.7588322124   -2.0131073430
18   
torsion grid (-60,)
C       -0.4033327020   -0.0204557333   -0.8039260584
C        0.7423117720   -0.1476144193   -0.1470307144
C        0.8260655751   -2.5804009746    0.3028699320
C        2.8032662176   -1.1682114420    0.6805154587
C        2.0652685957   -1.6308603638   -1.6202571769
N        1.5955041860   -1.3782201197   -0.2029552187
H       -0.9596798594    0.9068115079   -0.7096088681
H       -0.8345194930   -0.7877865582   -1.4404134717
H        1.1585749487    0.6291891182    0.4838675034
H        1.4902231593   -3.4454410991    0.2975661620
H        0.4789978842   -2.3700930370    1.3138441123
H       -0.0250500006   -2.7591685181   -0.3513666954
H        3.4291033506   -2.0591852792    0.6376310150
H        3.3594798112   -0.3039222126    0.3173073186
H        2.4662042254   -0.9973420327    1.7029823127
H        2.7244304728   -2.4997320513   -1.6186714687
H        1.1998000800   -1.8187966770   -2.2528550043
H        2.5969100202   -0.7475649224   -1.9724072608
18   
torsion grid (-45,)
C       -0.4614799892   -0.0570742570   -0.6819942500
C        0.7776929638   -0.1294549353   -0.2133561487
C        0.8133076806   -2.5774991253    0.2413648791
C        2.7708096130   -1.1807588359    0.7204209914
C        2.1356115124   -1.6186519268   -1.6217711213
N        1.6054567244   -1.3762745507   -0.2234332126
H       -0.9702726703    0.9015364439   -0.6587628270
H       -1.0181969036   -0.8970216414   -1.0857604040
H        1.3196292177    0.7279182186    0.1696001879
H        1.4818821347   -3.4379129286    0.2752490362
H        0.4089328542   -2.3662454491    1.2303453024
H        0.0052642996   -2.7729741832   -0.4605400425
H        3.3766878535   -2.0864820202    0.7231471463
H        3.3672082784   -0.3362475137    0.3751841603
H        2.3826040932   -0.9841624799    1.7198606121
H        2.7890821179   -2.4919671718   -1.6021690129
H        1.2924291099   -1.7871667825   -2.2897158751
H        2.6896430349   -0.7364933759   -1.9418434184
18   
torsion grid (-30,)
C       -0.5044058242   -0.0778765899   -0.5508112478
C        0.7962785747   -0.1263005940   -0.2928834771
C        0.8035688620   -2.5779387259    0.1797312908
C        2.7314542299   -1.1743033848    0.7436852331
C        2.1997371377   -1.6225928757   -1.6264935600
N        1.6095086534   -1.3774269274   -0.2527327016
H       -0.9861330331    0.8939625193   -0.5940164943
H       -1.1369815816   -0.9451312597   -0.7072121891
H        1.4072319206    0.7599332334   -0.1583283296
H        1.4784261603   -3.4295694154    0.2636641249
H        0.3404459734   -2.3618517405    1.1415551811
H        0.0432485804   -2.7954622957   -0.5681054630
H        3.3402214458   -2.0776918792    0.7764626028
H        3.3399426029   -0.3286061901    0.4237238474
H        2.2957175619   -0.9742237865    1.7225222905
H        2.8489718405   -2.4979425613   -1.5778656447
H        1.3838879657   -1.7862114624   -2.3290530648
H        2.7728125069   -0.7439853923   -1.9225238439
18   
torsion grid (-15,)
C       -0.5194102412   -0.0843232282   -0.4217667024
C        0.8056170330   -0.1375604267   -0.3759323545
C        0.7949880631   -2.5865372585    0.1199039269
C        2.6900622590   -1.1667860230    0.7621539837
C        2.2616908738   -1.6410823990   -1.6261502787
N        1.6128849729   -1.3859365513   -0.2802731429
H       -0.9921869062    0.8880332939   -0.5187438409
H       -1.1767376475   -0.9441472252   -0.3558506896
H        1.4373447581    0.7413487668   -0.4546451765
H        1.4682724498   -3.4372082414    0.2222651452
H        0.3033309010   -2.3806416001    1.0699298053
H        0.0591808652   -2.7986377160   -0.6542140379
H        3.3062693502   -2.0639204895    0.8244467807
H        3.3023014167   -0.3157394631    0.4643369918
H        2.2104981087   -0.9656958236    1.7198882681
H        2.9039852379   -2.5188165577   -1.5442472523
H        1.4760693167   -1.8052870819   -2.3624905343
H        2.8532903147   -0.7681266370   -1.9016303407
18   
torsion grid (0,)
C       -0.5156483286   -0.0810737557   -0.2969993178
C        0.7989090409   -0.1615152467   -0.4583413576
C        0.7909819898   -2.6055254493    0.0630316197
C        2.6440675309   -1.1535731358    0.7773805100
C        2.3182973062   -1.6638200773   -1.6204459236
N        1.6126440398   -1.3986562862   -0.3054450251
H       -0.9918210626    0.8841891946   -0.4381127746
H       -1.1602452827   -0.9117043618   -0.0325450769
H        1.4169885704    0.6903115109   -0.7237025431
H        1.4632195063   -3.4582665754    0.1540988873
H        0.2944239525   -2.4249201795    1.0155406557
H        0.0595321990   -2.7953520117   -0.7214318474
H        3.2765670612   -2.0374800810    0.8654985221
H        3.2476774257   -0.2894715126    0.5001970119
H        2.1228803844   -0.9594610367    1.7142507482
H        2.9539595171   -2.5423954444   -1.5059651480
H        1.5650352264   -1.8320892010   -2.3893824216
H        2.9250773211   -0.7953027754   -1.8760145250
18   
torsion grid (15,)
C       -0.4872396961   -0.0338709714   -0.1849236508
C        0.7830243742   -0.1729276676   -0.5423093417
C        0.7792431168   -2.6111137505    0.0041980609
C        2.5895837443   -1.1271635502    0.7879420855
C        2.3674086166   -1.6724224510   -1.6132640598
N        1.6057211205   -1.3971144249   -0.3329806406
H       -0.9717867415    0.9201135844   -0.3680297467
H       -1.0918076680   -0.8111021418    0.2690913074
H        1.3651582182    0.6282557269   -0.9861339595
H        1.4492473074   -3.4669118168    0.0825213747
H        0.2782612759   -2.4553487209    0.9583551167
H        0.0507654249   -2.7761822143   -0.7887324221
H        3.2364626454   -1.9977759048    0.9030646968
H        3.1835070653   -0.2504318584    0.5300042922
H        2.0282149466   -0.9400682318    1.7023972476
H        2.9950081524   -2.5516216111   -1.4664142305
H        1.6489369086   -1.8455869392   -2.4141893014
H        2.9882823424   -0.8080148942   -1.8480488987
18   
torsion grid (30,)
C       -0.4472417531   -0.0066932621   -0.0728202024
C        0.7458895648   -0.2167349993   -0.6140928986
C        0.7822530315   -2.6492545950   -0.0524001283
C        2.5301618326   -1.1172318040    0.7974737202
C        2.4148360733   -1.6838322476   -1.6040077667
N        1.5969157170   -1.4161261134   -0.3581736564
H       -0.9603944428    0.9226462491   -0.2995375244
H       -0.9655096213   -0.7069324000    0.5735597260
H        1.2476300783    0.5106869016   -1.2432977869
H        1.4642838262   -3.4941624562    0.0409703008
H        0.2512000098   -2.5117407674    0.8876694097
H        0.0780270036   -2.8155040262   -0.8664716081
H        3.1979798607   -1.9683715323    0.9377787590
H        3.1048622475   -0.2220589620    0.5600271880
H        1.9307512666   -0.9461176686    1.6904404291
H        3.0490272046   -2.5525411088   -1.4281363841
H        1.7337011246   -1.8726035796   -2.4337353101
H        3.0321205740   -0.8110461001   -1.8162502452
18   
torsion grid (45,)
C       -0.3790534908    0.0388907560    0.0332088257
C        0.7028052155   -0.2659069427   -0.6718663381
C        0.7891588910   -2.6894205934   -0.1068347137
C        2.4716463019   -1.1179045600    0.8084264921
C        2.4617987608   -1.6832054891   -1.5918253468
N        1.5894309315   -1.4360974355   -0.3814200808
H       -0.9414527409    0.9271748466   -0.2369462246
H       -0.7562790638   -0.5448592690    0.8671537017
H        1.0698339198    0.3426071387   -1.4906844017
H        1.4838939880   -3.5194047060    0.0232413614
H        0.2078481436   -2.5566424196    0.8033089237
H        0.1271246137   -2.8717188516   -0.9522134334
H        3.1575710910   -1.9509473118    0.9685807859
H        3.0262679215   -0.2042110661    0.5959615741
H        1.8386315492   -0.9705683303    1.6819620773
H        3.1081559045   -2.5371411112   -1.3908038957
H        1.8208112744   -1.8894251064   -2.4490722195
H        3.0665288709   -0.7957908257   -1.7786200559
18   
torsion grid (60,)
C       -0.2920197082    0.1170577091    0.1104345304
C        0.6524567817   -0.3116934262   -0.7167961096
C        0.7922832087   -2.7194577557   -0.1579063035
C        2.4117134529   -1.1223461667    0.8224005013
C        2.4998445957   -1.6612012601   -1.5762937982
N        1.5770795265   -1.4472592622   -0.3992355386
H       -0.9182196413    0.9482176905   -0.1982496280
H       -0.4902026288   -0.3083575146    1.0900476872
H        0.8369008660    0.1262569281   -1.6909096847
H        1.4958791375   -3.5330321400    0.0222551351
H        0.1500401990   -2.5823196600    0.7098861575
H        0.1859764969   -2.9258213396   -1.0391662016
H        3.1086222157   -1.9431460059    0.9956692636
H        2.9513905691   -0.1943473795    0.6369688272
H        1.7529900623   -1.0026208249    1.6804243054
H        3.1736130647   -2.4869352974   -1.3491616358
H        1.9004364301   -1.8995108279   -2.4550574766
H        3.0718740533   -0.7489329244   -1.7460739695
18   
torsion grid (75,)
C       -0.2100385988    0.2070146646    0.1467547434
C        0.5961263699   -0.3685381525   -0.7359788385
C        0.8044103674   -2.7615913489   -0.2073695531
C        2.3450996257   -1.1456676638    0.8544232318
C        2.5313862010   -1.6163850429   -1.5480308288
N        1.5610913915   -1.4625066296   -0.3998483117
H       -0.8965712551    0.9734890420   -0.1989678233
H       -0.2321240145   -0.0274258171    1.2065470468
H        0.5884073210   -0.1284083778   -1.7931817437
H        1.5230499522   -3.5607023500   -0.0203442853
H        0.1290673518   -2.6492137472    0.6390579313
H        0.2322537681   -2.9686528079   -1.1114667937
H        3.0682530287   -1.9447355053    1.0190554899
H        2.8523411427   -0.1916962223    0.7164875852
H        1.6653510897   -1.0893895549    1.7019616438
H        3.2367514713   -2.4115807009   -1.3080413069
H        1.9745794396   -1.8735411361   -2.4491440292
H        3.0604533073   -0.6736667287   -1.6882594646
18   
torsion grid (90,)
C       -0.1146982892    0.3093094431    0.1463540523
C        0.5418966870   -0.4286402840   -0.7396859381
C        0.8242572649   -2.8066516037   -0.2422291700
C        2.2893520691   -1.1710740853    0.8796943295
C        2.5421131426   -1.5749402974   -1.5286978247
N        1.5439705957   -1.4811101781   -0.3967794713
H       -0.8532464446    1.0168187913   -0.2174908815
H        0.0413306668    0.2738619007    1.2192296703
H        0.3496207961   -0.3830599237   -1.8063717259
H        1.5638335540   -3.5870553386   -0.0575869323
H        0.1299907356   -2.7270019721    0.5927152716
H        0.2762371846   -3.0166110367   -1.1608056923
H        3.0472250143   -1.9402578329    1.0271821612
H        2.7545990698   -0.1906236481    0.7857683799
H        1.5963983715   -1.1840365160    1.7184933195
H        3.2754985214   -2.3444609202   -1.2882870964
H        2.0140503617   -1.8394951811   -2.4447770504
H        3.0310236687   -0.6074705819   -1.6432596355
18   
torsion grid (105,)
C       -0.0572598084    0.3935189491    0.0901711787
C        0.4603160111   -0.4979522424   -0.7453299949
C        0.8494434122   -2.8562036582   -0.2730024260
C        2.2160512855   -1.1761097877    0.8965406688
C        2.5275362308   -1.5252333361   -1.5156516279
N        1.5093128526   -1.4965854225   -0.3957598311
H       -0.8392759938    1.0504226629   -0.2777116638
H        0.2520754248    0.5299533946    1.1204031701
H        0.1216715754   -0.6164735685   -1.7695675151
H        1.6195362597   -3.6023491942   -0.0730265667
H        0.1287300530   -2.8171986367    0.5425553892
H        0.3398047273   -3.0854566264   -1.2088690202
H        2.9994356878   -1.9182389306    1.0482351329
H        2.6513377730   -0.1799034677    0.8263331031
H        1.5060353660   -1.2265060695    1.7203526585
H        3.2855634740   -2.2729533061   -1.2818594168
H        2.0224710474   -1.7862361516   -2.4455010284
H        2.9789543338   -0.5368278856   -1.5992599179
18   
torsion grid (120,)
C        0.0261183018    0.4812180667    0.0278587304
C        0.3989231389   -0.5483054872   -0.7216022748
C        0.8744804777   -2.8974464822   -0.3075188562
C        2.1667752532   -1.2011509396    0.9192395574
C        2.5082346109   -1.4751548750   -1.5015876404
N        1.4830744613   -1.5115661490   -0.3858425661
H       -0.7825862214    1.1109630448   -0.3296581636
H        0.4703221405    0.7479310578    0.9801805850
H       -0.0670883989   -0.7897193229   -1.6716530337
H        1.6683767704   -3.6179494177   -0.1082064321
H        0.1371648203   -2.9065918706    0.4945196523
H        0.3939163411   -3.1254917442   -1.2587705139
H        2.9426145891   -1.9488313148    1.0818401639
H        2.6158401565   -0.2103733119    0.8627529025
H        1.4374290339   -1.2465961955    1.7269758801
H        3.2844249077   -2.2107314346   -1.2883170255
H        2.0138632694   -1.7168612897   -2.4423160012
H        2.9319995293   -0.4725695176   -1.5493994023
18   
torsion grid (135,)
C        0.1058792299    0.5517865291   -0.0553105873
C        0.3443727390   -0.5949406870   -0.6788323382
C        0.9065213662   -2.9361466249   -0.3344228539
C        2.1264804734   -1.2316978202    0.9541448796
C        2.4902430829   -1.4243072694   -1.4757592826
N        1.4624540686   -1.5276231556   -0.3646952954
H       -0.7276909337    1.1580360117   -0.3958973633
H        0.6754373167    0.9301437832    0.7862166182
H       -0.2399785420   -0.9422810380   -1.5247717714
H        1.7227171178   -3.6313897854   -0.1372516197
H        0.1553160205   -2.9964614944    0.4529260454
H        0.4542715946   -3.1576865349   -1.3008310291
H        2.8945843459   -1.9856950737    1.1244644492
H        2.5885326724   -0.2466075170    0.9140630502
H        1.3792777964   -1.2726589768    1.7459649369
H        3.2834110448   -2.1487907367   -1.2869837403
H        2.0029002232   -1.6413016080   -2.4261454018
H        2.8881827654   -0.4104619313   -1.4849197434
18   
torsion grid (150,)
C        0.1869985124    0.6042628032   -0.1372726855
C        0.2961924672   -0.6315305134   -0.6079546869
C        0.9345179429   -2.9693492643   -0.3650304031
C        2.1035786983   -1.2814235448    0.9901254188
C        2.4654130928   -1.3717277756   -1.4514381815
N        1.4458301481   -1.5454175888   -0.3412855618
H       -0.6753681854    1.1943194095   -0.4314545641
H        0.8919817893    1.0726790569    0.5411775283
H       -0.4175368483   -1.0677701814   -1.2986481775
H        1.7707144176   -3.6458319209   -0.1890897966
H        0.1833972966   -3.0837547565    0.4167059397
H        0.4937557400   -3.1698686260   -1.3412960034
H        2.8786841811   -2.0322933767    1.1424964664
H        2.5580644062   -0.2926340122    0.9817308400
H        1.3501003471   -1.3475626163    1.7740713841
H        3.2751016269   -2.0865625279   -1.2982053331
H        1.9758297061   -1.5557048866   -2.4076430961
H        2.8413692709   -0.3502669233   -1.4188835061
18   
torsion grid (165,)
C        0.2519801782    0.6407393283   -0.2636092517
C        0.2566014021   -0.6564345867   -0.5423246705
C        0.9582683427   -2.9894770108   -0.3966990345
C        2.0696298856   -1.3242033510    1.0299173029
C        2.4553043834   -1.3200672957   -1.4146448694
N        1.4321388759   -1.5559644135   -0.3211104134
H       -0.6402066468    1.2167174840   -0.4884831346
H        1.0810909474    1.1779108671    0.1864427595
H       -0.5787226716   -1.1678142458   -1.0072565806
H        1.8099094048   -3.6501103668   -0.2363702774
H        0.2059107935   -3.1512439471    0.3754547418
H        0.5301524289   -3.1681424553   -1.3829859790
H        2.8745811862   -2.0480141521    1.1588891739
H        2.4770904233   -0.3162157161    1.0701625528
H        1.3103472215   -1.4535266502    1.8000965223
H        3.2776597007   -2.0246067106   -1.2826062325
H        1.9743526589   -1.4737843321   -2.3803491326
H        2.8146145096   -0.2949939488   -1.3405535599
18   
torsion grid (180,)
C        0.2766748575    0.6528077843   -0.4054165476
C        0.2224924757   -0.6713975446   -0.4663918749
C        0.9774884043   -2.9956468261   -0.4325382154
C        2.0414645416   -1.3592285652    1.0641756789
C        2.4463514155   -1.2635312434   -1.3771934737
N        1.4202649504   -1.5569109909   -0.3026680615
H       -0.6399403520    1.2196497312   -0.5348507380
H        1.1849170760    1.2230154846   -0.2327204195
H       -0.6935146923   -1.2242559217   -0.6395868848
H        1.8461600849   -3.6427152762   -0.3138435590
H        0.2436867040   -3.2099343351    0.3445805235
H        0.5359136584   -3.1407031984   -1.4185540399
H        2.8760958575   -2.0531373419    1.1705624902
H        2.3949445490   -0.3334120126    1.1489340174
H        1.2830218952   -1.5537331610    1.8216542784
H        3.2814548399   -1.9548373555   -1.2583783951
H        1.9761975180   -1.3945804741   -2.3511463671
H        2.7920102452   -0.2374007050   -1.2677907380
