20   
torsion grid (-165,)
C       -1.1347902916    0.6989282694    0.3987533221
C       -1.1838430505   -0.6242297414   -0.0538993713
C        0.0948789074    1.2915510445    0.7085440861
C       -0.0026676829   -1.3570784923   -0.2021399371
C        1.2838313597    0.5707686981    0.5609559958
C        1.2153994063   -0.7464946489    0.1027044964
C        2.9077295161   -1.6489946132   -1.9352056959
N        2.4732465616   -3.2906061619    0.0299386399
N        3.7649769653   -0.9008992297    0.6676459586
S        2.7141014368   -1.7480132052   -0.1286482559
H       -2.0547726993    1.2657219154    0.5162774845
H       -2.1393671640   -1.0879076461   -0.2836879498
H        0.1294791223    2.3161526916    1.0692666592
H       -0.0186280486   -2.3948148946   -0.5254558463
H        2.2498716161    0.9970634874    0.8074761311
H        2.0471712592   -2.1070360769   -2.4229676355
H        3.8200950053   -2.1961688077   -2.1796116942
H        3.0008071255   -0.5938857729   -2.1950021625
H        2.3995182587   -3.5025379518    1.0298331143
H        4.6551446770   -1.4063331164    0.6693482159
20   
torsion grid (-150,)
C       -1.1411083182    0.6903416866    0.4116484446
C       -1.2089631139   -0.6723756652    0.1049558491
C        0.1014911460    1.3190154952    0.5610741452
C       -0.0327698174   -1.4111079353   -0.0621166943
C        1.2830859871    0.5907469476    0.4004234530
C        1.1957424150   -0.7664025972    0.0795114160
C        3.0017888286   -1.5295728637   -1.9183879837
N        2.4041445111   -3.3235969849   -0.1348899222
N        3.6889363962   -1.0391814371    0.8077900920
S        2.6870984868   -1.7801446867   -0.1435751067
H       -2.0561302135    1.2621934570    0.5424139121
H       -2.1735417458   -1.1618455137    0.0007386732
H        0.1506747863    2.3749522439    0.8134645015
H       -0.0549499574   -2.4732202032   -0.2927747904
H        2.2569453184    1.0456689275    0.5454020594
H        2.1599586241   -1.9172837338   -2.4926864050
H        3.9129426183   -2.0816339621   -2.1561502521
H        3.1365383919   -0.4593304864   -2.0795309589
H        2.3010315851   -3.6221214179    0.8398856900
H        4.5782228691   -1.5473764647    0.8014691125
20   
torsion grid (-135,)
C       -1.1475671219    0.6865324944    0.4360001903
C       -1.2229462565   -0.6991424116    0.2684827570
C        0.0956362500    1.3324450021    0.4177224571
C       -0.0550026528   -1.4444917094    0.0705781744
C        1.2683412844    0.5973793902    0.2312059109
C        1.1713383549   -0.7842695249    0.0433304853
C        3.1002558115   -1.4180752412   -1.8872613515
N        2.3550955729   -3.3405410434   -0.2998419520
N        3.5929849895   -1.1757490946    0.9251081875
S        2.6588530288   -1.8070273176   -0.1650442813
H       -2.0553758925    1.2643393658    0.5887375718
H       -2.1862990336   -1.2012845779    0.2931624603
H        0.1524640297    2.4077544998    0.5643702313
H       -0.0842959294   -2.5213689158   -0.0745164012
H        2.2424531337    1.0744918767    0.2631919480
H        2.2922055231   -1.7418393317   -2.5440132977
H        4.0167003520   -1.9681296679   -2.1082494591
H        3.2616716675   -0.3415470854   -1.9542457195
H        2.2223950843   -3.7196178210    0.6426218139
H        4.4765795952   -1.6950167743    0.9321936375
20   
torsion grid (-120,)
C       -1.1781823202    0.6824399913    0.4584007009
C        0.0348996869    1.3759146239    0.4263059760
C       -1.2266125074   -0.6693278161    0.0939277167
C        1.2080149024    0.7173134997    0.0410785822
C       -0.0629855080   -1.3305869444   -0.3044249071
C        1.1462778292   -0.6298202446   -0.3051855200
C        2.8831411118   -2.7401614935    0.3354980660
N        3.9738856346   -0.5697714108   -0.5949276804
N        2.2351843026   -1.8609090038   -2.3240545086
S        2.6815121271   -1.4092362090   -0.8897569908
H       -2.0880102035    1.1943575106    0.7606007936
H        0.0713065710    2.4267235660    0.7005432707
H       -2.1731126466   -1.2031854301    0.1036226136
H        2.1667858039    1.2290447329    0.0336670268
H       -0.1010534424   -2.3620931318   -0.6404767782
H        3.0147134052   -2.2948242571    1.3221570033
H        3.7756399496   -3.2966156624    0.0444720105
H        1.9975666795   -3.3750363806    0.2989324922
H        4.0731375408    0.1264705541   -1.3394119481
H        3.0412741535   -2.2913360691   -2.7893052550
20   
torsion grid (-105,)
C       -1.1848941023    0.6930499361    0.4437000151
C        0.0003070180    1.4133309876    0.2662262449
C       -1.1987340602   -0.6933827145    0.2518525271
C        1.1767464190    0.7480737825   -0.0921881577
C       -0.0297415532   -1.3628237163   -0.1190989620
C        1.1525945964   -0.6337551269   -0.2668545634
C        2.7975632718   -2.8639104416    0.2588140015
N        3.9998975309   -0.6620093958   -0.4028405704
N        2.3146474100   -1.7027708344   -2.3336345424
S        2.6942914657   -1.4150194545   -0.8393206081
H       -2.0978786441    1.2102920260    0.7264156547
H        0.0118187867    2.4906265880    0.4074197684
H       -2.1222898534   -1.2524106690    0.3759160710
H        2.1111798784    1.2908921977   -0.2055615811
H       -0.0537503179   -2.4302142359   -0.3136944303
H        2.8341658668   -2.5242168893    1.2943792268
H        3.7229020535   -3.3765864306   -0.0079189782
H        1.9348990483   -3.5040857899    0.0763437612
H        4.1639461758    0.0993030988   -1.0674950215
H        3.1393522970   -2.0927407355   -2.8025242446
20   
torsion grid (-90,)
C       -1.1986044964    0.7094076240    0.4533658814
C       -0.0600839235    1.4421537992    0.0996369937
C       -1.1620084897   -0.6878744560    0.4381171955
C        1.1144576151    0.7791312036   -0.2616319072
C        0.0087103680   -1.3583361825    0.0682490432
C        1.1413334937   -0.6158277090   -0.2690992908
C        2.7008347577   -2.9529176357    0.1235617251
N        3.9947831761   -0.7329137815   -0.1838083971
N        2.4408484435   -1.4985968353   -2.3413560898
S        2.7069467175   -1.3835433748   -0.8003639206
H       -2.1110665921    1.2260230040    0.7385978909
H       -0.0850004442    2.5283975110    0.1063549884
H       -2.0462435850   -1.2603717856    0.7049377699
H        2.0065134151    1.3432264480   -0.5194001486
H        0.0169426403   -2.4423567044    0.0340120185
H        2.5883441025   -2.7527847936    1.1896157071
H        3.6722835334   -3.4067276978   -0.0763717071
H        1.8986256385   -3.5824648301   -0.2600553612
H        4.2105440975    0.1176639552   -0.7111254919
H        3.3026348891   -1.8287553445   -2.7890928856
20   
torsion grid (-75,)
C       -1.1494707205    0.7176005731    0.4628123666
C       -0.0771590592    1.4202280929   -0.1007497952
C       -1.0572226917   -0.6638682842    0.6450998979
C        1.0832472406    0.7434234790   -0.4765373819
C        0.1034689511   -1.3504354820    0.2684682047
C        1.1637728088   -0.6402705473   -0.2952493183
C        2.6429972867   -3.0614362021   -0.0228255298
N        3.9942902104   -0.8599680392    0.0454141523
N        2.6303816491   -1.3634342281   -2.3158707831
S        2.7565855878   -1.3999803069   -0.7533371696
H       -2.0519930743    1.2461686428    0.7574661594
H       -0.1447707403    2.4947095024   -0.2477842974
H       -1.8876588748   -1.2144714729    1.0787482130
H        1.9126658371    1.2845232377   -0.9228619572
H        0.1550740693   -2.4237606976    0.4117212171
H        2.4915376618   -2.9939193390    1.0548207722
H        3.6071611972   -3.5247034495   -0.2363387446
H        1.8411478810   -3.6058901823   -0.5212763570
H        4.2458969453    0.0605215372   -0.3258813973
H        3.5318373615   -1.6475446201   -2.7139910716
20   
torsion grid (-60,)
C       -1.1536494371    0.7327085507    0.4827632153
C       -0.1472571217    1.3848395098   -0.2403759328
C       -0.9980738983   -0.6097024563    0.8358313035
C        1.0090635543    0.6973650535   -0.6100086065
C        0.1616174408   -1.3056334290    0.4748202548
C        1.1499160760   -0.6500471015   -0.2612088300
C        2.5521882865   -3.1320855138   -0.1335424148
N        3.9248024956   -0.9922678559    0.3443148991
N        2.8050228871   -1.1963384432   -2.1895086468
S        2.7684544029   -1.3995515782   -0.6347937960
H       -2.0542455171    1.2694044702    0.7686041067
H       -0.2645033815    2.4283870769   -0.5198965856
H       -1.7763723040   -1.1209953138    1.3958920637
H        1.7817170256    1.1859748674   -1.1956308856
H        0.2690291008   -2.3439340507    0.7674616608
H        2.4091481991   -3.2083095645    0.9442538454
H        3.4858669646   -3.6197255575   -0.4176587865
H        1.7186981688   -3.5516303831   -0.6974803771
H        4.2061919219   -0.0302130183    0.1336370529
H        3.7453431943   -1.4383445541   -2.5182699165
20   
torsion grid (-45,)
C       -1.1375838181    0.7256292074    0.4498656493
C       -0.2258289836    1.3188391045   -0.4306935536
C       -0.8846229135   -0.5515523792    0.9589825565
C        0.9333824500    0.6380708740   -0.8085407193
C        0.2789013620   -1.2367949617    0.5953636008
C        1.1680808035   -0.6452968259   -0.3054018053
C        2.5059387222   -3.1591887058   -0.3659107164
N        3.8916590262   -1.1213207948    0.4353929648
N        2.9353680185   -1.0352287215   -2.1761318037
S        2.7949790931   -1.3886734039   -0.6543586999
H       -2.0404000240    1.2568082481    0.7392305963
H       -0.4186438763    2.3115150884   -0.8286808864
H       -1.5875416606   -1.0151452345    1.6458372351
H        1.6360976809    1.0693837555   -1.5137918361
H        0.4742891778   -2.2158817383    1.0190714225
H        2.3740397148   -3.3652146770    0.6957000715
H        3.4102786462   -3.6518451061   -0.7266105559
H        1.6442372995   -3.4633795790   -0.9608951299
H        4.1987250304   -0.1471844657    0.3560335549
H        3.8924319001   -1.2576722092   -2.4660837458
20   
torsion grid (-30,)
C       -1.1538140324    0.7260714302    0.4252473570
C       -0.3204005608    1.2484625625   -0.5693381258
C       -0.8066142232   -0.4633427662    1.0753202454
C        0.8549768344    0.5819561976   -0.9268932398
C        0.3726574824   -1.1303724927    0.7339694689
C        1.1791154766   -0.6159578443   -0.2854461411
C        2.4437738357   -3.1430952150   -0.5205849341
N        3.8256744487   -1.2492909947    0.5922686338
N        3.0712133120   -0.8717463809   -2.0645428928
S        2.8106797227   -1.3643843869   -0.5985539149
H       -2.0682997282    1.2461910905    0.6978312480
H       -0.5850017130    2.1753732863   -1.0712218049
H       -1.4454298241   -0.8659118740    1.8567227252
H        1.5074689834    0.9532471433   -1.7096631294
H        0.6572981681   -2.0288545256    1.2720801807
H        2.2167879755   -3.4513638485    0.4991084728
H        3.3538442991   -3.6389471101   -0.8624004657
H        1.6180653165   -3.3411470730   -1.2046530713
H        4.1571988277   -0.2813009108    0.6455098250
H        4.0392790048   -1.0976973081   -2.3093901350
20   
torsion grid (-15,)
C       -1.1423511438    0.7008674023    0.4202453941
C       -0.3848685799    1.1422855470   -0.6694872466
C       -0.7037583133   -0.3854267613    1.1866723123
C        0.8064913112    0.4938057837   -1.0100948096
C        0.4909104488   -1.0322362720    0.8624856791
C        1.2191220622   -0.6025675230   -0.2510066744
C        2.3970335071   -3.1298767440   -0.6658168629
N        3.7819501392   -1.4088165927    0.6991101106
N        3.2015429438   -0.7549421905   -1.9519092327
S        2.8411717127   -1.3703889925   -0.5558412758
H       -2.0684025474    1.2074828623    0.6791290141
H       -0.7195558088    1.9929805123   -1.2572039509
H       -1.2816888746   -0.7182940651    2.0445495142
H        1.4126143494    0.8062884828   -1.8532319284
H        0.8611840302   -1.8404416411    1.4864386820
H        2.0259320492   -3.4959560509    0.2907628639
H        3.3166146397   -3.6524460979   -0.9351389638
H        1.6499803751   -3.2267058176   -1.4542074347
H        4.1345831537   -0.4622247894    0.8707427169
H        4.1691644399   -1.0040267610   -2.1732151165
20   
torsion grid (0,)
C       -1.1772175772    0.6813490713    0.4035707027
C       -0.4808932301    1.0406884121   -0.7554254881
C       -0.6576153675   -0.2939140189    1.2629513816
C        0.7318792824    0.4202695616   -1.0724988947
C        0.5575981547   -0.9138236951    0.9618725255
C        1.2266622924   -0.5622471988   -0.2135578033
C        2.3273891929   -3.0766907883   -0.7961182419
N        3.7062409884   -1.5384044133    0.7756471591
N        3.2877126315   -0.6228916056   -1.8279933558
S        2.8360258718   -1.3530195443   -0.5168315277
H       -2.1195192191    1.1672447934    0.6430215385
H       -0.8797018723    1.8073021458   -1.4144880230
H       -1.1895478401   -0.5610266833    2.1720755915
H        1.2989608219    0.6789271489   -1.9596771573
H        0.9964346238   -1.6378660906    1.6432015674
H        1.8621725943   -3.4821094625    0.1021672069
H        3.2383219929   -3.6294478288   -1.0329373683
H        1.6378638416   -3.0776470485   -1.6409452775
H        4.0920620027   -0.6263893612    1.0391157398
H        4.2454670629   -0.9108311345   -2.0451607721
20   
torsion grid (15,)
C       -1.1771360257    0.6593190007    0.3953803201
C       -0.5391137460    0.9192226468   -0.8231130161
C       -0.5869983780   -0.1961301456    1.3323543805
C        0.6889089022    0.3195223647   -1.1182987537
C        0.6424340724   -0.7984649947    1.0497023056
C        1.2590410796   -0.5386762011   -0.1757609665
C        2.2911926250   -3.0291517884   -0.9291503870
N        3.6537137208   -1.6863503703    0.8276293689
N        3.3895371856   -0.5221967496   -1.6937785102
S        2.8526824971   -1.3573599352   -0.4811401865
H       -2.1313452185    1.1297296535    0.6180557356
H       -0.9950084541    1.5930973493   -1.5436805112
H       -1.0768271145   -0.3873277617    2.2833484037
H        1.2161367989    0.5141950346   -2.0455589144
H        1.1343398242   -1.4436448565    1.7731692843
H        1.7674886675   -3.4796079095   -0.0858447729
H        3.1876326106   -3.6029564609   -1.1713734076
H        1.6403531600   -2.9311790094   -1.7987593788
H        4.0815841034   -0.8197079989    1.1682559717
H        4.3330126802   -0.8484247951   -1.9203059177
20   
torsion grid (30,)
C       -1.1907438759    0.6449365303    0.4004981410
C       -0.6077496178    0.7875692571   -0.8649363835
C       -0.5368437716   -0.0833107867    1.3994556754
C        0.6307185705    0.2017812714   -1.1398234813
C        0.7015579733   -0.6776567585    1.1347154765
C        1.2696108916   -0.5216886972   -0.1294679090
C        2.2626181775   -2.9680918451   -1.0514047587
N        3.5741697286   -1.8303387750    0.8825835492
N        3.4764737781   -0.4293375688   -1.5235106360
S        2.8517722805   -1.3622148979   -0.4294026787
H       -2.1532445189    1.1052788564    0.6079867686
H       -1.1149771348    1.3604516954   -1.6367264334
H       -0.9874746640   -0.1888115825    2.3826447713
H        1.1169021598    0.3208908805   -2.1020679019
H        1.2336319955   -1.2474682862    1.8923742300
H        1.6832663890   -3.4667289480   -0.2739662024
H        3.1509000444   -3.5519201235   -1.2996644900
H        1.6582091707   -2.7744538331   -1.9383375783
H        4.0426546844   -1.0175824554    1.2947301348
H        4.4084104736   -0.7831231630   -1.7587837024
20   
torsion grid (45,)
C       -1.1913421478    0.6411590041    0.4032021625
C       -0.6701522583    0.6496631782   -0.8972911989
C       -0.4744730828    0.0461186194    1.4453992642
C        0.5720352626    0.0680737268   -1.1603945257
C        0.7660878056   -0.5494481166    1.1902679868
C        1.2800005982   -0.5125093141   -0.1041611519
C        2.2567287473   -2.8983538454   -1.1885196859
N        3.4943407110   -1.9731336152    0.9042183032
N        3.5636263754   -0.3541045505   -1.3542233166
S        2.8535041029   -1.3719399686   -0.3957757954
H       -2.1573503837    1.0979889112    0.6017176961
H       -1.2289786280    1.1145258525   -1.7051769767
H       -0.8809870215    0.0369988905    2.4531220845
H        1.0082285603    0.0968343865   -2.1537643826
H        1.3333351363   -1.0431731161    1.9751462243
H        1.6252467593   -3.4424527265   -0.4855830155
H        3.1418321272   -3.4849308819   -1.4411267032
H        1.7036688852   -2.6144180184   -2.0844640600
H        3.9975950809   -1.2212726384    1.3848556497
H        4.4924624788   -0.7203729166   -1.5851824404
20   
torsion grid (60,)
C       -1.1941052254    0.6498418443    0.4184086835
C       -0.7436946771    0.5133048209   -0.9009879198
C       -0.4103338891    0.1888507680    1.4799777457
C        0.4954400258   -0.0757232639   -1.1615414326
C        0.8254458250   -0.4167056166    1.2257700096
C        1.2760133432   -0.5146350666   -0.0882637901
C        2.2698740649   -2.8264496958   -1.3253296324
N        3.3990781131   -2.1224874535    0.9069452381
N        3.6397603496   -0.3010432531   -1.1675342110
S        2.8455845902   -1.3899342480   -0.3655624331
H       -2.1584142839    1.1104712649    0.6160514557
H       -1.3551483501    0.8690265846   -1.7259500980
H       -0.7641950446    0.2848647447    2.5028990224
H        0.8696704610   -0.1495906398   -2.1780358362
H        1.4294585997   -0.8266258320    2.0307870014
H        1.5810754009   -3.4083488692   -0.7122684618
H        3.1592514027   -3.4122862916   -1.5633560713
H        1.7868347143   -2.4621224311   -2.2320648188
H        3.9149400136   -1.4362061754    1.4655125332
H        4.5755292671   -0.6680822546   -1.3698707692
20   
torsion grid (75,)
C       -1.1912947917    0.6805984705    0.4448954582
C       -0.8216162119    0.3835177969   -0.8718266518
C       -0.3363816279    0.3553229546    1.5024799906
C        0.4060008062   -0.2297856363   -1.1358006814
C        0.8865952310   -0.2721657087    1.2465834595
C        1.2578519443   -0.5330732781   -0.0708044082
C        2.3328837087   -2.7428374263   -1.4569558594
N        3.2864774737   -2.2784091906    0.9084512182
N        3.7020381678   -0.2601219794   -0.9360586896
S        2.8345438634   -1.4117015980   -0.3190568634
H       -2.1467272305    1.1580037506    0.6454096941
H       -1.4864660510    0.6312966331   -1.6948928568
H       -0.6257905072    0.5743049143    2.5266654505
H        0.7041812423   -0.4274862476   -2.1604029583
H        1.5370703311   -0.5758651298    2.0620310209
H        1.5482175549   -3.3375929336   -0.9884020047
H        3.2263812891   -3.3478382860   -1.6176706297
H        1.9948317965   -2.2964383428   -2.3915274129
H        3.7624038729   -1.6620697566    1.5733348400
H        4.6545452356   -0.6144181344   -1.0746538208
20   
torsion grid (90,)
C       -1.1920889597    0.7066370849    0.4627937872
C       -0.9197567824    0.2371461473   -0.8253336818
C       -0.2543281557    0.5265835917    1.4857418403
C        0.2910912501   -0.4080727254   -1.0983760043
C        0.9517724588   -0.1255671533    1.2216508519
C        1.2219758249   -0.5742316920   -0.0716240879
C        2.4034346305   -2.6435192036   -1.6132895134
N        3.1709003871   -2.4475677558    0.8495688762
N        3.7188237853   -0.2448606832   -0.7324333944
S        2.8072159616   -1.4458057463   -0.3019569887
H       -2.1338670072    1.2073249823    0.6705478924
H       -1.6460606696    0.3739931468   -1.6219475511
H       -0.4643198390    0.8849615604    2.4897784016
H        0.5004675427   -0.7485525768   -2.1066065173
H        1.6705703694   -0.2938343672    2.0186956990
H        1.5518883249   -3.2522651774   -1.3077735275
H        3.2946892086   -3.2635148658   -1.7178438916
H        2.2057265578   -2.0996506522   -2.5363894098
H        3.5606994010   -1.9131402233    1.6309785952
H        4.6839849355   -0.5852805259   -0.8011690796
20   
torsion grid (105,)
C       -1.1923416153    0.7229807495    0.4704469385
C       -0.9984164824    0.0869108745   -0.7576858526
C       -0.1825939884    0.6908785950    1.4401325063
C        0.2009298517   -0.5845599188   -1.0239303965
C        1.0139982006    0.0213080983    1.1832019735
C        1.1980665508   -0.6124679470   -0.0486310893
C        2.4885246432   -2.5292390721   -1.7144148921
N        3.0569428685   -2.6118243198    0.8051568850
N        3.7331764260   -0.2622719523   -0.5008940648
S        2.7850245977   -1.4863678357   -0.2538522454
H       -2.1247369011    1.2431763150    0.6724482524
H       -1.7765101018    0.1136894004   -1.5157738958
H       -0.3263171377    1.1884584812    2.3953462891
H        0.3384233311   -1.0647792364   -1.9861084901
H        1.8018849904    0.0017161429    1.9307751491
H        1.6345547060   -3.1856375596   -1.5445690262
H        3.3988048566   -3.1201051799   -1.8238615771
H        2.3480374019   -1.8829530341   -2.5806118021
H        3.3376116982   -2.1703957079    1.6853929405
H        4.6996992444   -0.6053268805   -0.5053422332
20   
torsion grid (120,)
C       -1.1892176547    0.7241000705    0.4728167634
C       -1.0572132300   -0.0575270769   -0.6769270760
C       -0.1229327081    0.8237167279    1.3753068797
C        0.1340455142   -0.7488935892   -0.9285448971
C        1.0690520090    0.1417533930    1.1304136574
C        1.1865441721   -0.6475189997   -0.0181295954
C        2.5563744857   -2.4303831704   -1.7752749916
N        2.9292316108   -2.7823914595    0.7588706540
N        3.7533739401   -0.3394143160   -0.2700335638
S        2.7597454372   -1.5506279041   -0.1985873324
H       -2.1158938790    1.2585983699    0.6635518151
H       -1.8778907926   -0.1301595172   -1.3854885350
H       -0.2164971552    1.4401280665    2.2653086890
H        0.2171598597   -1.3515884692   -1.8256865347
H        1.9118828929    0.2417525027    1.8075206219
H        1.7369457337   -3.1467210314   -1.7138171917
H        3.4997580516   -2.9589346981   -1.9192832775
H        2.4091905704   -1.6937666989   -2.5652767652
H        3.1254562939   -2.4365233036    1.7027053117
H        4.7078333755   -0.7112130866   -0.2249477660
20   
torsion grid (135,)
C       -1.1821834979    0.7374670551    0.4676382299
C       -1.1083109572   -0.1762408191   -0.5870244400
C       -0.0639514205    0.9547982358    1.2813356806
C        0.0757881410   -0.8821355583   -0.8267253438
C        1.1248669277    0.2626030585    1.0443155197
C        1.1820520714   -0.6605399395   -0.0042714920
C        2.6043736475   -2.2895395442   -1.8637061922
N        2.8087226508   -2.9324253064    0.6360378546
N        3.7708447415   -0.4262897515   -0.0862911815
S        2.7344508194   -1.5991742510   -0.1882800610
H       -2.1040709594    1.2828844553    0.6508408144
H       -1.9699416870   -0.3417710861   -1.2281179478
H       -0.1125880027    1.6745082416    2.0940948841
H        0.1120579788   -1.5961217452   -1.6419205458
H        2.0124448302    0.4532258134    1.6385961911
H        1.8280691657   -3.0527447363   -1.9111908773
H        3.5787097357   -2.7434225904   -2.0513057472
H        2.4279766154   -1.4685033370   -2.5591147505
H        2.9433801690   -2.6968477779    1.6237896857
H        4.7066506803   -0.8379282582   -0.0160357417
20   
torsion grid (150,)
C       -1.1746530521    0.7386080511    0.4477910735
C       -1.1453617970   -0.3131476791   -0.4737098981
C       -0.0183387209    1.0776496887    1.1588113333
C        0.0348487112   -1.0331827213   -0.6806798685
C        1.1697705616    0.3724565644    0.9502151537
C        1.1810412636   -0.6864610872    0.0390563791
C        2.6667300168   -2.1349182760   -1.9041342622
N        2.7041131587   -3.0683106533    0.5149064287
N        3.7825416852   -0.5298005446    0.1243159667
S        2.7187461310   -1.6485357002   -0.1533341029
H       -2.0944985723    1.2950407618    0.6069415801
H       -2.0397784048   -0.5760588139   -1.0319657884
H       -0.0354705315    1.9019114215    1.8668752175
H        0.0397866490   -1.8638184995   -1.3785532655
H        2.0890558947    0.6438579772    1.4575869826
H        1.8922453489   -2.8799341551   -2.0817739982
H        3.6477759767   -2.5691550414   -2.1037462510
H        2.5189989480   -1.2327176143   -2.4983041026
H        2.7744512349   -2.9515192637    1.5302836757
H        4.7000241116   -0.9778547515    0.2030366120
20   
torsion grid (165,)
C       -1.1602794667    0.7201454127    0.4204322783
C       -1.1628316301   -0.4533952613   -0.3424153540
C        0.0253439318    1.1704112311    1.0103799461
C        0.0180341741   -1.1801373707   -0.5127879630
C        1.2157128750    0.4576597152    0.8358705420
C        1.1945163591   -0.7177855470    0.0834715613
C        2.7399714395   -1.9599067356   -1.9278810789
N        2.6196978999   -3.1782510554    0.3619391144
N        3.7978572326   -0.6474720617    0.3239542556
S        2.7193147901   -1.6914942427   -0.1293693233
H       -2.0810716319    1.2820453443    0.5532220814
H       -2.0831695285   -0.8060758859   -0.7999422775
H        0.0286216978    2.0844428929    1.5983057707
H        0.0080626339   -2.1110296450   -1.0716951592
H        2.1565794201    0.7960154175    1.2554886230
H        1.9265606495   -2.6161848723   -2.2343166266
H        3.7005670234   -2.4326073022   -2.1401407153
H        2.6766887297   -0.9814412977   -2.4048328278
H        2.6240128796   -3.1845038980    1.3864944004
H        4.6995703950   -1.1270752477    0.3901413122
20   
torsion grid (180,)
C       -1.1384876845    0.7073280845    0.4024161121
C       -1.1647473469   -0.5542043243   -0.2038025960
C        0.0702760618    1.2432454467    0.8595008180
C        0.0184153616   -1.2817352464   -0.3538728503
C        1.2626544550    0.5284736910    0.7058834519
C        1.2177986958   -0.7296831758    0.1036941213
C        2.8216076079   -1.7874048287   -1.9414658305
N        2.5489904369   -3.2419097139    0.1920643766
N        3.8055368322   -0.7666552423    0.5021578459
S        2.7281642947   -1.7159414995   -0.1262307680
H       -2.0607738229    1.2699892745    0.5213162676
H       -2.1046876202   -0.9742831916   -0.5514251385
H        0.0879509987    2.2215780400    1.3324513257
H        0.0060419126   -2.2788966792   -0.7856880744
H        2.2173881312    0.9173453589    1.0418654928
H        1.9617569349   -2.3211882150   -2.3452424414
H        3.7433199911   -2.3230889454   -2.1759438399
H        2.8637666959   -0.7597360333   -2.3036838531
H        2.5074865814   -3.3581682696    1.2092935004
H        4.6985030711   -1.2656692358    0.5320318521
