15   
torsion grid (-165,)
C        1.8428942610   -1.7437986050   -0.6723182441
C        2.4209040190   -1.2689849014    0.5086251640
C        0.7785608194   -1.0529205497   -1.2651978871
C        1.9379866438   -0.1015945208    1.1060167306
C        0.2871622945    0.1128496967   -0.6779084457
C        0.8661095217    0.5806025147    0.5108694257
O        1.2209098662    2.6233318392    2.3696020189
P        0.3104739265    2.0783825332    1.3412126535
Cl      -0.1219264088    3.4132488650   -0.1793288485
Cl      -1.5785434043    1.6267685565    2.0569366266
H        2.2237289231   -2.6500131235   -1.1357030958
H        3.2513298620   -1.8014741373    0.9635955212
H        0.3348048544   -1.4200694879   -2.1862583187
H        2.3872431625    0.2849693418    2.0157433664
H       -0.5354438280    0.6500525679   -1.1405844169
15   
torsion grid (-150,)
C        1.8362041699   -1.7515925228   -0.6665083335
C        2.3549526738   -1.3084108262    0.5544769776
C        0.8437863981   -1.0124807850   -1.3198021541
C        1.8823591597   -0.1266083253    1.1285117310
C        0.3605554800    0.1685935998   -0.7537831707
C        0.8749013989    0.6026876356    0.4757833203
O        1.3620355386    2.7877586764    2.1342166240
P        0.3470735899    2.1190085525    1.2941581312
Cl      -0.4122014877    3.3258992603   -0.2025417890
Cl      -1.3651262616    1.5942279893    2.3344308271
H        2.2099896888   -2.6690321916   -1.1131722913
H        3.1334852246   -1.8757883451    1.0565713169
H        0.4482448430   -1.3519679422   -2.2728856812
H        2.2954913484    0.2354104831    2.0652502228
H       -0.4067269325    0.7409707374   -1.2650833308
15   
torsion grid (-135,)
C        1.8312190877   -1.7467979127   -0.6628061832
C        2.2798591996   -1.3434617837    0.5999637118
C        0.8920250337   -0.9749911037   -1.3530876917
C        1.7903700732   -0.1708776292    1.1758846168
C        0.3898525508    0.1982200516   -0.7841046121
C        0.8316976569    0.5914390691    0.4857800705
O        1.3721765108    2.9050103179    1.9515562345
P        0.3063244840    2.1083452401    1.3092723902
Cl      -0.7850940994    3.1677109355   -0.0892949236
Cl      -1.1618110537    1.4956129003    2.6359877260
H        2.2181788490   -2.6583629630   -1.1102316376
H        3.0176743210   -1.9359553971    1.1334591675
H        0.5501157160   -1.2817611443   -2.3375089821
H        2.1536606374    0.1544763583    2.1464874339
H       -0.3394422036    0.7922874064   -1.3243104423
15   
torsion grid (-120,)
C        1.8360454961   -1.7410759301   -0.6636907188
C        2.2202829105   -1.3859158403    0.6347693162
C        0.9575632238   -0.9262013247   -1.3823947269
C        1.7274120876   -0.2178217439    1.2154234839
C        0.4528707673    0.2441453679   -0.8082610703
C        0.8302342702    0.5907671728    0.4951580590
O        1.4158672599    3.0317646591    1.7337782800
P        0.3301303834    2.1261290288    1.3044999579
Cl      -1.0373234378    3.0190236276    0.0387092283
Cl      -0.8666029954    1.5048356177    2.8776698164
H        2.2241534555   -2.6505141908   -1.1143601830
H        2.9084103026   -2.0141429863    1.1932222615
H        0.6630088369   -1.1967062849   -2.3924147003
H        2.0378100455    0.0617461115    2.2183331888
H       -0.2307419918    0.8702175085   -1.3711536430
15   
torsion grid (-105,)
C        1.8391246725   -1.7586859898   -0.6614257610
C        2.1461435640   -1.4218435174    0.6618899817
C        1.0235160878   -0.9201970525   -1.4258205329
C        1.6391298663   -0.2494097975    1.2220259539
C        0.5086599838    0.2562070311   -0.8743123559
C        0.8083695040    0.5847769344    0.4544719940
O        1.3713885024    3.1722941181    1.3864271525
P        0.3137172272    2.1585073661    1.1938737315
Cl      -1.2725547044    2.8337095202    0.0535619785
Cl      -0.6159154096    1.6192388623    2.9643573198
H        2.2356115920   -2.6729588612   -1.0946231377
H        2.7826139150   -2.0695460517    1.2580438239
H        0.7849440618   -1.1777463893   -2.4538230485
H        1.8832695562    0.0073592833    2.2488379108
H       -0.1265955880    0.8993929532   -1.4737053236
15   
torsion grid (-90,)
C        1.8423702698   -1.0621237246   -0.1564227198
C        3.0699553519   -1.1013946005    0.5127393951
C        0.6493379247   -1.0135844158    0.5710464527
C        3.1094703954   -1.0930066495    1.9080455485
C        0.6775499123   -1.0053875878    1.9672673736
C        1.9097210612   -1.0548693083    2.6360140049
O        2.1300778073    0.4984445406    4.9699598622
P        1.9774934057   -0.8702932497    4.4342485458
Cl       0.2855484258   -1.8338583644    5.1353170724
Cl       3.4906111706   -2.1492889721    5.0336861072
H        1.8158340753   -1.0713369539   -1.2426801690
H        3.9988453573   -1.1389152915   -0.0492257628
H       -0.3058627028   -0.9825880035    0.0546357531
H        4.0663422545   -1.1279623815    2.4195188554
H       -0.2533073570   -0.9723593679    2.5241678717
15   
torsion grid (-75,)
C        1.8382399675   -1.0586525073   -0.1506281076
C        3.0616236949   -1.1838663502    0.5134157576
C        0.6552488712   -0.9113047269    0.5820229057
C        3.1102024962   -1.1633283952    1.9096892735
C        0.6923719331   -0.8885933671    1.9765323670
C        1.9228797669   -1.0207315467    2.6410591328
O        1.8057146142    0.5213723339    4.9886566033
P        1.9361132665   -0.8450861420    4.4413130298
Cl       0.4399803438   -2.1215026176    5.0905949887
Cl       3.6472889591   -1.8183947691    5.0746784865
H        1.8052061754   -1.0781386220   -1.2365796025
H        3.9818147519   -1.2997670128   -0.0521511867
H       -0.2975704536   -0.8139876038    0.0694830210
H        4.0635780127   -1.2675952556    2.4167135282
H       -0.2303461567   -0.7770363498    2.5381634500
15   
torsion grid (-60,)
C        1.8576792977   -1.0607650515   -0.1384065323
C        3.0609049135   -1.2809170273    0.5368735590
C        0.6827104802   -0.8161948707    0.5822930454
C        3.0983721523   -1.2616245280    1.9341105795
C        0.7096733926   -0.7889728626    1.9762667888
C        1.9218539463   -1.0137937900    2.6522759752
O        1.4355984577    0.3894937157    5.0287509318
P        1.8618405462   -0.9037237713    4.4548982100
Cl       0.6368601906   -2.4761708689    5.0195550066
Cl       3.7145177434   -1.5307295339    5.1224940556
H        1.8334951953   -1.0803505722   -1.2246021208
H        3.9740752811   -1.4706289360   -0.0200914088
H       -0.2541705879   -0.6444504493    0.0599824591
H        4.0346694427   -1.4408426197    2.4511339710
H       -0.2033665964   -0.5929873040    2.5314758142
15   
torsion grid (-45,)
C        1.8510692446   -1.0682078232   -0.1385216601
C        3.0301252893   -1.3752711497    0.5470506528
C        0.6977355146   -0.7122953652    0.5698526342
C        3.0637944380   -1.3339558877    1.9432605985
C        0.7211186173   -0.6610980521    1.9637543989
C        1.9100689105   -0.9679327529    2.6483606671
O        1.1020520767    0.2406381560    5.0342137869
P        1.8044950882   -0.9200270226    4.4488026442
Cl       0.9478520335   -2.7347486139    4.9627446738
Cl       3.7405733762   -1.1407239821    5.1364187823
H        1.8302413852   -1.1052896146   -1.2243549474
H        3.9258797787   -1.6504460140   -0.0024921548
H       -0.2188134908   -0.4717550223    0.0386975229
H        3.9790133618   -1.5812476216    2.4703446119
H       -0.1692614162   -0.3726258693    2.5151715098
15   
torsion grid (-30,)
C        4.5995736508    2.5899484090    4.2004597103
C        5.4521650126    2.2868931660    3.1328893022
C        3.4745150763    3.3957046507    3.9975856562
C        5.1854585711    2.7894741896    1.8583558560
C        3.1947826256    3.9017141658    2.7265503413
C        4.0504682452    3.5876726906    1.6580474595
O        2.2142925927    4.6263974425   -0.1634933846
P        3.6456876424    4.3504119898    0.0768097811
Cl       4.8372405614    6.0412368127   -0.0152036317
Cl       4.5064982587    3.1386455808   -1.3602999273
H        4.8119463458    2.1957479213    5.1906178584
H        6.3250914798    1.6600483050    3.2915038740
H        2.8117601174    3.6285329131    4.8262330616
H        5.8497149698    2.5558948025    1.0324218650
H        2.3160272925    4.5170605459    2.5574787357
15   
torsion grid (-15,)
C        1.8666086657   -1.0544142794   -0.1214098419
C        2.9727383756   -1.5597880146    0.5735123285
C        0.7645909591   -0.5504743711    0.5755593341
C        2.9799386994   -1.5629352537    1.9682243959
C        0.7617514365   -0.5484312761    1.9730606575
C        1.8748442559   -1.0508700568    2.6636058656
O        0.6908625980   -0.2351886044    5.0483029184
P        1.7679556029   -1.0584841708    4.4605029693
Cl       1.6642936820   -3.0590524387    4.9828479203
Cl       3.6622567206   -0.5477200884    5.1169392718
H        1.8665086194   -1.0530668355   -1.2081204256
H        3.8279868208   -1.9503285275    0.0293479512
H       -0.0918285342   -0.1571855710    0.0351351284
H        3.8375203452   -1.9551910416    2.5068343864
H       -0.0843374963   -0.1532224888    2.5269365850
15   
torsion grid (0,)
C        1.8761157894   -1.0313369988   -0.1175606862
C        2.9303659868   -1.6351236509    0.5804091745
C        0.8043857415   -0.4623550517    0.5759959583
C        2.9152989622   -1.6713279183    1.9741087089
C        0.7780586249   -0.4924635522    1.9733750364
C        1.8369517174   -1.0985971633    2.6645241786
O        0.5352526627   -0.4565434159    5.0400689528
P        1.7333852019   -1.0988967729    4.4614035019
Cl       1.9687250451   -3.0799063230    5.0121872617
Cl       3.5183918682   -0.2702864946    5.1019754209
H        1.8927975876   -1.0058425267   -1.2038657139
H        3.7620313745   -2.0765410918    0.0386281795
H       -0.0120068351    0.0052858718    0.0328576238
H        3.7322426981   -2.1392360868    2.5160846157
H       -0.0475227383   -0.0547581888    2.5261721780
15   
torsion grid (15,)
C        1.8906550285   -1.0108244391   -0.1200185874
C        2.8895082038   -1.7106949721    0.5686856873
C        0.8576346799   -0.3817978386    0.5809500783
C        2.8583591662   -1.7833739377    1.9611761206
C        0.8166606366   -0.4488901058    1.9762418540
C        1.8168701460   -1.1559933059    2.6602426587
O        0.4310461074   -0.7062561673    5.0332478956
P        1.7177252289   -1.1495680626    4.4575882294
Cl       2.2795886578   -3.0545421343    5.0368489412
Cl       3.3390636705   -0.0226643213    5.0798554642
H        1.9187989480   -0.9582630977   -1.2050929711
H        3.6908286916   -2.1990035730    0.0213958465
H        0.0826456479    0.1591256299    0.0452436143
H        3.6331446661   -2.3257413562    2.4949889715
H        0.0160213110    0.0287163887    2.5327514382
15   
torsion grid (30,)
C        1.9001787419   -0.9851520682   -0.1314005383
C        2.8318994220   -1.7780285705    0.5480629370
C        0.9070738440   -0.3018909844    0.5778821258
C        2.7768087617   -1.8910219864    1.9381749621
C        0.8393503743   -0.4094460408    1.9685441882
C        1.7720633833   -1.2140264984    2.6433914444
O        0.2933309874   -1.0164249861    4.9979360167
P        1.6455187074   -1.2264516640    4.4406793401
Cl       2.5296497718   -2.9942532075    5.0500560561
Cl       3.0215048232    0.1837131188    5.0759054527
H        1.9480347136   -0.9014707834   -1.2138273796
H        3.6024427833   -2.3090846304   -0.0035542029
H        0.1821459287    0.3117005805    0.0505095467
H        3.5029907476   -2.5039139420    2.4625173243
H        0.0633267956    0.1072549918    2.5254435750
15   
torsion grid (45,)
C        1.8944810221   -0.9895233789   -0.1360168157
C        2.7648960513   -1.8561356243    0.5316884584
C        0.9588411497   -0.2389054658    0.5849516528
C        2.7102244147   -1.9749451317    1.9227798265
C        0.8903879975   -0.3541689091    1.9735327048
C        1.7659218320   -1.2292146093    2.6399958835
O        0.2486729711   -1.3064252104    4.9847424541
P        1.6204228010   -1.2536407573    4.4381241550
Cl       2.8219146312   -2.8061287405    5.0831926832
Cl       2.6829516690    0.4111131978    5.0632794379
H        1.9440454424   -0.8990170151   -1.2177719724
H        3.4904990115   -2.4398118383   -0.0277010300
H        0.2806107579    0.4336928824    0.0675910167
H        3.3935590435   -2.6426291646    2.4364410218
H        0.1563630815    0.2177941209    2.5339961900
15   
torsion grid (60,)
C        1.8917126421   -0.9990720112   -0.1364433801
C        2.7018592872   -1.9318707047    0.5160688828
C        1.0382957268   -0.1715095515    0.6028773827
C        2.6678022145   -2.0422223251    1.9091627474
C        0.9920197459   -0.2770466806    1.9926081039
C        1.8108713826   -1.2149637982    2.6458375872
O        0.3010900906   -1.6672970855    4.9630007004
P        1.6371077479   -1.3110962630    4.4418686553
Cl       3.1380118541   -2.5758563564    5.0890936124
Cl       2.2968837671    0.5335197185    5.1157309750
H        1.9247027242   -0.9150195404   -1.2193267691
H        3.3647298501   -2.5753891723   -0.0553921326
H        0.4071144966    0.5544614938    0.0982713831
H        3.3051319176   -2.7634626267    2.4088711590
H        0.3239641089    0.3631085696    2.5620044815
15   
torsion grid (75,)
C        1.8798376462   -0.9830376613   -0.1483179633
C        2.6207961278   -1.9829100001    0.4877141656
C        1.1039958663   -0.0975752240    0.6079775979
C        2.5916397017   -2.1033711331    1.8794761811
C        1.0669386340   -0.2094297289    1.9981819856
C        1.8175357663   -1.2116593829    2.6348473650
O        0.3882268020   -2.0485719013    4.9063387912
P        1.6275048061   -1.4046237100    4.4233085901
Cl       3.3464732628   -2.3638346911    5.0570741577
Cl       1.8900390292    0.5073955943    5.1746333305
H        1.9080160310   -0.8914928561   -1.2307168905
H        3.2252568934   -2.6711948331   -0.0961880336
H        0.5269546349    0.6810471863    0.1172601877
H        3.1750024683   -2.8784918984    2.3650126184
H        0.4649086545    0.4834962528    2.5784374236
15   
torsion grid (90,)
C        1.8851136223   -0.9844384198   -0.1540396178
C        2.5555320303   -2.0338627539    0.4827774766
C        1.1875413748   -0.0376579437    0.6021961199
C        2.5318147046   -2.1401614431    1.8744119499
C        1.1579206804   -0.1343430652    1.9950604804
C        1.8394444966   -1.1821842969    2.6318316476
O        0.5811574522   -2.3097097898    4.8799481628
P        1.6709814289   -1.4259247332    4.4163532171
Cl       3.5434665599   -2.0533600131    5.0366644595
Cl       1.5631311233    0.4825173596    5.2093579867
H        1.9081028902   -0.9038307127   -1.2374222431
H        3.0983053648   -2.7713892726   -0.1016033421
H        0.6653966803    0.7784712297    0.1109254126
H        3.0583312337   -2.9553522848    2.3609060445
H        0.6180286205    0.6074853679    2.5746558227
15   
torsion grid (105,)
C       -0.0691795749    1.0158572425   -0.7151919965
C       -1.1870646390    0.4039096513   -0.1366500344
C        0.4346088564    0.5476555976   -1.9316113443
C       -1.8021971362   -0.6745556795   -0.7721838900
C       -0.1749663010   -0.5313681369   -2.5776115843
C       -1.3012332041   -1.1345049222   -2.0021153969
O       -1.8085211425   -3.8952485252   -1.9661659653
P       -2.0511954666   -2.6291979220   -2.6884539160
Cl      -4.0633881069   -2.1636416340   -2.8439718486
Cl      -1.4604389779   -2.6882471877   -4.6683344719
H        0.4075671284    1.8560744672   -0.2177174748
H       -1.5792763253    0.7634215886    0.8104362585
H        1.3032198412    1.0193464359   -2.3821401373
H       -2.6681038402   -1.1465982513   -0.3169144365
H        0.2202268491   -0.8862377824   -3.5233372250
15   
torsion grid (120,)
C       -0.0800067470    1.0113409690   -0.7079030938
C       -1.1456778852    0.3541724863   -0.0815947814
C        0.3669177353    0.5850024644   -1.9612149727
C       -1.7648006907   -0.7279340969   -0.7063255953
C       -0.2498472524   -0.4950723800   -2.5992735381
C       -1.3228794890   -1.1433649945   -1.9750442730
O       -2.1035656269   -3.8262783616   -1.8076873127
P       -2.1308293289   -2.6116442514   -2.6486457666
Cl      -4.0551864528   -1.9782466577   -3.0834053433
Cl      -1.3253370461   -2.8928177098   -4.5304741668
H        0.4021243079    1.8524681669   -0.2171190865
H       -1.4908839399    0.6792968586    0.8957417628
H        1.1976473101    1.0895780416   -2.4463617769
H       -2.5830031804   -1.2438913446   -0.2116925859
H        0.1006658518   -0.8184545474   -3.5733035079
15   
torsion grid (135,)
C       -0.0744658753    1.0300537071   -0.6965199469
C       -1.0828066106    0.3172324191   -0.0379754394
C        0.3274084493    0.6547905561   -1.9818558368
C       -1.6930470656   -0.7702524938   -0.6634198383
C       -0.2808385105   -0.4290093995   -2.6203496557
C       -1.2992483503   -1.1318090765   -1.9636521831
O       -2.3203309585   -3.7201024891   -1.7341563030
P       -2.1292424905   -2.5781131279   -2.6520772956
Cl      -3.9096840033   -1.8394074066   -3.4128373768
Cl      -1.0907312457   -3.0668507857   -4.3692946043
H        0.4017706217    1.8740757583   -0.2049203824
H       -1.3883576492    0.6008856602    0.9651499052
H        1.1168552641    1.2017977528   -2.4894743575
H       -2.4607611333   -1.3383673100   -0.1459897794
H        0.0345726024   -0.7158846525   -3.6177955001
15   
torsion grid (150,)
C       -0.0770683794    1.0227966290   -0.7051641360
C       -1.0183571709    0.2597386064   -0.0065165210
C        0.2676745076    0.6873069875   -2.0191366888
C       -1.6214939456   -0.8407596049   -0.6185736096
C       -0.3313459775   -0.4085554726   -2.6428211871
C       -1.2825550742   -1.1636038479   -1.9429124581
O       -2.5067268575   -3.6508602808   -1.6649586832
P       -2.1059984186   -2.6098871766   -2.6339149018
Cl      -3.6926385941   -1.8474575096   -3.7251783093
Cl      -0.8544537534   -3.3061405188   -4.1243571957
H        0.3939994268    1.8754441259   -0.2235178286
H       -1.2773222207    0.5137150709    1.0174777366
H        1.0059379691    1.2746714133   -2.5577065729
H       -2.3368435259   -1.4512382055   -0.0755842067
H       -0.0594722635   -0.6687856264   -3.6607414111
15   
torsion grid (165,)
C       -0.0775176033    1.0131843525   -0.7101006926
C       -0.9593782434    0.2090542512    0.0179374988
C        0.1962795588    0.7272266029   -2.0535321597
C       -1.5759988398   -0.8861476900   -0.5927197309
C       -0.4135585733   -0.3623433370   -2.6750599064
C       -1.3026543836   -1.1611761574   -1.9412444651
O       -2.7597468342   -3.5201597117   -1.6857023452
P       -2.1361642343   -2.5906258088   -2.6503949830
Cl      -3.4677207002   -1.8056746242   -4.0279641218
Cl      -0.7334554050   -3.4821739004   -3.8816903119
H        0.4022936023    1.8621006368   -0.2304149021
H       -1.1645670721    0.4283341112    1.0619537000
H        0.8868048910    1.3501547958   -2.6149542178
H       -2.2526264915   -1.5268628466   -0.0354190108
H       -0.1969954615   -0.5874964607   -3.7151509145
15   
torsion grid (180,)
C       -0.0623739591    1.0066171839   -0.7039773027
C       -0.8828267960    0.1586648013    0.0451931996
C        0.1244552991    0.7815832838   -2.0742210307
C       -1.5229579316   -0.9210185631   -0.5701848358
C       -0.5085796441   -0.2918843703   -2.6995078776
C       -1.3308180785   -1.1392181502   -1.9420941967
O       -3.0159845576   -3.3459766352   -1.7372063005
P       -2.1866179211   -2.5480675995   -2.6638837207
Cl      -3.2377505186   -1.7724537838   -4.2691886009
Cl      -0.7103101145   -3.6415722630   -3.6171386430
H        0.4337178543    1.8448832477   -0.2220970936
H       -1.0264820890    0.3347142116    1.1075242506
H        0.7628855215    1.4423214848   -2.6537515700
H       -2.1633339703   -1.5884179093   -0.0015892568
H       -0.3643361072   -0.4664544976   -3.7619703180
