13   
torsion grid (-165,)
C        0.8192137406    1.0045428803    0.5500613757
C        2.3673166028    0.5839941673    2.3910402409
C        2.6083951000   -0.3773596377    3.5364059429
N        1.0262600216    0.3832922675    1.8582765041
F        1.7548905730   -0.0840123034    4.5832519527
F        3.8930962799   -0.2375758721    4.0107471833
H       -0.2181428040    0.8506098654    0.2389626489
H        1.0318112945    2.0875143528    0.5247967002
H        1.4634582287    0.5173360051   -0.1896151198
H        2.5795683997    1.6087419347    2.7404733949
H        3.0974671801    0.3453047873    1.6103228528
H        2.4486389302   -1.4239866451    3.2662779394
H        0.3421449425    0.7320805977    2.5249212186
13   
torsion grid (-150,)
C        0.8329631204    0.9429210466    0.5385391528
C        2.3401266645    0.6661806112    2.4592086711
C        2.6152280492   -0.4057749716    3.4953764029
N        0.9950895249    0.4983556425    1.9221975993
F        1.7958294100   -0.2249227814    4.5915005267
F        3.9153464091   -0.3103979866    3.9433430267
H       -0.2091606193    0.8018372210    0.2368617408
H        1.1026118805    1.9989960500    0.3640184380
H        1.4533371163    0.3230514134   -0.1172739978
H        2.5408641887    1.6522231047    2.9068015592
H        3.0665907613    0.5208497980    1.6531365122
H        2.4490907813   -1.4192211583    3.1221760133
H        0.3162012028    0.9463844102    2.5300371894
13   
torsion grid (-135,)
C        0.8457648515    0.8747455200    0.5429832618
C        2.3157721304    0.7421252914    2.5222118981
C        2.6177936721   -0.4282334182    3.4406757210
N        0.9690952755    0.6147298480    1.9754495798
F        1.8394387066   -0.3544461573    4.5758409538
F        3.9345759023   -0.3809283780    3.8505994393
H       -0.2011296421    0.7583877183    0.2468233579
H        1.1831083292    1.8780357310    0.2295984762
H        1.4280061280    0.1335850648   -0.0146879828
H        2.4879667566    1.6735156778    3.0798135586
H        3.0514685836    0.7113916820    1.7118791979
H        2.4342638046   -1.3998899081    2.9750985217
H        0.3079939915    1.1674637283    2.5096368513
13   
torsion grid (-120,)
C        0.8612720152    0.7967733404    0.5658412570
C        2.2861851396    0.8136737325    2.5808672073
C        2.6174905668   -0.4417002600    3.3706476629
N        0.9386814508    0.7218523311    2.0236120703
F        1.8797608955   -0.4836774522    4.5314901666
F        3.9486590092   -0.4286673564    3.7383014404
H       -0.1867900283    0.7338837505    0.2580408040
H        1.2951954654    1.7159391329    0.1355517773
H        1.3826162496   -0.0596414148    0.1248917101
H        2.4079251396    1.6714439452    3.2531912101
H        3.0382183205    0.9150599255    1.7894047759
H        2.4223001702   -1.3655690184    2.8195142378
H        0.3226040955    1.4011117436    2.4545685150
13   
torsion grid (-105,)
C        0.8766224524    0.7146423644    0.6086516560
C        2.2558829951    0.8837414041    2.6358720409
C        2.6121108305   -0.4436717962    3.2868174840
N        0.9115123421    0.8273280235    2.0665393363
F        1.9104277748   -0.6068422530    4.4568189554
F        3.9540236120   -0.4580624033    3.6139847495
H       -0.1639875664    0.7060721991    0.2712107044
H        1.4094064829    1.5263548953    0.0836341282
H        1.3270391938   -0.2350023042    0.2996024022
H        2.3225860445    1.6510355989    3.4141459355
H        3.0251405873    1.1113149730    1.8841058015
H        2.4075980841   -1.3122507327    2.6544271572
H        0.3657556565    1.6258224308    2.3701124836
13   
torsion grid (-90,)
C        0.8827311199    0.6351406176    0.6646796615
C        2.2293831190    0.9484001941    2.6885735233
C        2.6100913303   -0.4339910946    3.1967651322
N        0.8954857126    0.9330246654    2.0973010851
F        1.9135827866   -0.7367541753    4.3405646927
F        3.9522243306   -0.4503334785    3.5214966028
H       -0.1438938515    0.6943705270    0.2920417978
H        1.5154170612    1.3115270048    0.0635973214
H        1.2317226269   -0.3884526935    0.4915842837
H        2.2498349297    1.6212157181    3.5512088996
H        3.0147401236    1.2771853120    1.9880259300
H        2.4304631260   -1.2397455978    2.4795279441
H        0.4323360747    1.8188954004    2.2705559605
13   
torsion grid (-75,)
C        0.8631532428    0.5588478578    0.7280138178
C        2.2130234367    1.0004903507    2.7334037463
C        2.6286844877   -0.4135586969    3.1078193671
N        0.8949468933    1.0340779316    2.1117949657
F        1.8515654984   -0.8998619623    4.1284893935
F        3.9324074466   -0.3873004819    3.5617004086
H       -0.1228401972    0.7646085743    0.3023623895
H        1.6272122290    1.0237730899    0.0795178941
H        1.0067620287   -0.5257173049    0.6937772944
H        2.1937227254    1.5845750183    3.6583024925
H        3.0148601128    1.4068674681    2.0906701093
H        2.5833009800   -1.1351299084    2.2879049732
H        0.5273196055    1.9788104636    2.1621659827
13   
torsion grid (-60,)
C        0.8307366641    0.4885797260    0.8018308215
C        2.2066703774    1.0468706946    2.7703330031
C        2.6531698456   -0.3846978534    3.0169329698
N        0.9069703003    1.1300114782    2.1148999357
F        1.7849455079   -1.0422638724    3.8510902215
F        3.8832526691   -0.3543299428    3.6421030829
H       -0.1050194702    0.7820523003    0.3184275510
H        1.6644943001    0.7479252595    0.1240130409
H        0.8058989750   -0.6000388797    0.9121538457
H        2.1522675496    1.5439319889    3.7438593672
H        3.0247455526    1.5166263163    2.1930762428
H        2.7656248536   -0.9912121522    2.1146369885
H        0.6403613646    2.1070273365    2.0425657641
13   
torsion grid (-45,)
C        0.8045447204    0.4356675068    0.8605001690
C        2.2016301871    1.0813926134    2.8100036464
C        2.6681496574   -0.3572792817    2.9441423054
N        0.9386559399    1.2183190450    2.0887510526
F        1.7511806555   -1.1243017466    3.6211122576
F        3.8352639057   -0.3681444191    3.6785808822
H       -0.1103531337    0.7459801550    0.3483795991
H        1.6449678840    0.5447536318    0.1502894268
H        0.6928876864   -0.6256625810    1.1016760790
H        2.0916386093    1.4903935952    3.8197460585
H        3.0447904370    1.6054842249    2.3240050767
H        2.8794668148   -0.8580953765    1.9962656440
H        0.7712951259    2.2019750326    1.9024706374
13   
torsion grid (-30,)
C        0.7742170422    0.4010782035    0.8979443088
C        2.1872307521    1.0977783763    2.8504893844
C        2.6902413125   -0.3328201617    2.8923817491
N        0.9808095671    1.2894753381    2.0412590333
F        1.7684443630   -1.1737308244    3.4735737563
F        3.8248555918   -0.3722295047    3.6737002353
H       -0.1265326280    0.7274765659    0.3704436226
H        1.6018304772    0.3785478095    0.1651814892
H        0.5922297399   -0.6199387362    1.2443597365
H        1.9969963246    1.4089862726    3.8840478649
H        3.0479176716    1.6808313895    2.4818636669
H        2.9511959053   -0.7549448167    1.9191844841
H        0.9246823704    2.2599724883    1.7514935033
13   
torsion grid (-15,)
C        0.7317804963    0.3805857496    0.9290025575
C        2.1673329832    1.1014758676    2.8826271334
C        2.7256159867   -0.3091005002    2.8533764741
N        1.0272417400    1.3473171484    1.9877102349
F        1.8168395191   -1.2162253665    3.3540909706
F        3.8327710867   -0.3578708005    3.6723399902
H       -0.1426588936    0.7395381221    0.3783297835
H        1.5427646442    0.2189436028    0.1962099338
H        0.4654513952   -0.5851011914    1.3655714503
H        1.8865996314    1.3081999365    3.9230273050
H        3.0235145322    1.7477615508    2.6414682289
H        3.0321866787   -0.6640416326    1.8667441919
H        1.1046786895    2.2789999131    1.5954245807
13   
torsion grid (0,)
C        0.6726081913    0.3705033514    0.9691816063
C        2.1463397547    1.0969467763    2.9020463131
C        2.7794437649   -0.2815284321    2.8137321375
N        1.0703034878    1.3943271587    1.9406037443
F        1.8911537181   -1.2601205008    3.2047993132
F        3.8401500812   -0.3328457056    3.6926897188
H       -0.1371273726    0.7824487876    0.3596259049
H        1.4691052243    0.0364470839    0.2823275955
H        0.2794136260   -0.5073143004    1.4868954026
H        1.7746323910    1.1912399142    3.9310727028
H        2.9703535622    1.8108462801    2.7917758805
H        3.1573660062   -0.5588685131    1.8264556977
H        1.3003760546    2.2484004997    1.4447168175
13   
torsion grid (15,)
C        0.5142896749   -1.0418766285    1.6116073816
C        2.2679793128    0.6041356071    2.4025012209
C        2.7982419143   -0.4341115067    3.3798788055
N        1.2444970196    0.2219302846    1.4227394759
F        3.3431688301   -1.5221550327    2.7277367135
F        1.8042410142   -0.9123379463    4.2055159961
H       -0.1712281799   -1.1550055228    0.7661854683
H        1.1494547829   -1.9353872338    1.6702149193
H       -0.0887671059   -0.9931121691    2.5218260833
H        1.8813462520    1.4083536951    3.0463485358
H        3.1364738515    1.0180615895    1.8806670469
H        3.5779404611   -0.0162193392    4.0260605001
H        1.6860287919    0.1857404336    0.5090661415
13   
torsion grid (30,)
C        0.4789092714   -1.0015983968    1.6250360663
C        2.2402594223    0.6059301536    2.4153803086
C        2.8374286201   -0.4418228058    3.3485138602
N        1.3102334075    0.1848386923    1.3685206583
F        3.4239799876   -1.4700005351    2.6381336475
F        1.8769229951   -1.0063660337    4.1599136550
H       -0.1660032008   -1.1525724772    0.7539199256
H        1.0430588196   -1.9248473493    1.8096905755
H       -0.1665360339   -0.8201700567    2.4892424218
H        1.7419588260    1.3237274787    3.0828398555
H        3.0732364674    1.1407771971    1.9490758088
H        3.6039077286   -0.0185300665    4.0070968788
H        1.8463103085    0.0086504302    0.5229846268
13   
torsion grid (45,)
C        0.4398755847   -0.9608522903    1.6260574768
C        2.2108013886    0.5976814406    2.4294066228
C        2.8845100053   -0.4398767534    3.3258174086
N        1.3799534576    0.1289763178    1.3289754872
F        3.5208619079   -1.4004099884    2.5655728601
F        1.9674992365   -1.0953507306    4.1199347704
H       -0.1723381877   -1.1365106998    0.7360484192
H        0.9130776097   -1.9067087364    1.9208231994
H       -0.2290676634   -0.6526041661    2.4357034521
H        1.6099493902    1.2264669011    3.1001438053
H        2.9989922874    1.2361450612    2.0172868226
H        3.6322239147   -0.0008717268    3.9955413997
H        1.9873276878   -0.1680683981    0.5690365645
13   
torsion grid (60,)
C        0.3791392372   -0.9124695808    1.6202875147
C        2.1886933770    0.5710137832    2.4451324448
C        2.9502998657   -0.4328224267    3.3092319442
N        1.4400958793    0.0551370135    1.3117421994
F        3.6897792025   -1.2828348699    2.5108268578
F        2.0938023442   -1.2213441832    4.0489147974
H       -0.1811633669   -1.1167873750    0.7025684036
H        0.7313984879   -1.8650317150    2.0381151118
H       -0.3138774488   -0.4652352294    2.3405867169
H        1.5107573626    1.1172898699    3.1122424899
H        2.9245474656    1.2935079874    2.0734555143
H        3.6417124370    0.0419511791    4.0140255771
H        2.0884817759   -0.3543582225    0.6432187170
13   
torsion grid (75,)
C        0.3099020572   -0.8600357441    1.6070614771
C        2.1714714470    0.5316271600    2.4646790917
C        3.0255790670   -0.4199686589    3.2972417046
N        1.4885023785   -0.0363859500    1.3162980470
F        3.8936383440   -1.1113941214    2.4738258538
F        2.2547888027   -1.3636740203    3.9436782122
H       -0.1713825789   -1.1267585495    0.6609128504
H        0.5155877030   -1.7816165458    2.1691954313
H       -0.4060203936   -0.2643316455    2.1835484448
H        1.4380460165    0.9953051637    3.1334787864
H        2.8439204420    1.3285051339    2.1218707161
H        3.6289215275    0.0871013506    4.0579680603
H        2.1507118064   -0.5503573418    0.7405896127
13   
torsion grid (90,)
C        0.2442372785   -0.7967448899    1.5903594432
C        2.1540742284    0.4859247947    2.4936213075
C        3.1030898628   -0.4111424027    3.2759330503
N        1.5235744380   -0.1285053925    1.3359799445
F        4.0612456992   -0.9274271989    2.4233994013
F        2.4420410807   -1.4905156934    3.8242996082
H       -0.1466073106   -1.1792584838    0.6424527334
H        0.2930276378   -1.6288130043    2.3088102145
H       -0.4747594172   -0.0608014082    1.9660802126
H        1.3871904011    0.8572649690    3.1802093068
H        2.7503776553    1.3531945385    2.1772097581
H        3.6292675118    0.1032514851    4.0868720735
H        2.1769075535   -0.7484110828    0.8651212348
13   
torsion grid (105,)
C        0.1931080622   -0.7366914611    1.5497575250
C        2.1323277425    0.4327083781    2.5317000419
C        3.1796042646   -0.3925154581    3.2588990591
N        1.5513528461   -0.2236568511    1.3668088774
F        4.1696058682   -0.7790181562    2.3752507542
F        2.6336561324   -1.5531329471    3.7669345407
H       -0.1348139647   -1.2091200844    0.6187982082
H        0.0866782611   -1.4694156890    2.3662770991
H       -0.4870495959    0.0987816730    1.7472634966
H        1.3514505027    0.6929773847    3.2531037759
H        2.6279886275    1.3704562053    2.2413334787
H        3.6648301331    0.1378954132    4.0843428535
H        2.1749277397   -0.9412521765    1.0098785784
13   
torsion grid (120,)
C        0.1555649846   -0.6752002376    1.4985268366
C        2.1087101810    0.3685398833    2.5720321178
C        3.2527430489   -0.3677816654    3.2403145874
N        1.5712021681   -0.3211116186    1.4014435211
F        4.2548911223   -0.6320125920    2.3286987920
F        2.8325962014   -1.5903040230    3.7243773168
H       -0.1367598896   -1.2237099871    0.5980879707
H       -0.0981489385   -1.2912386866    2.3780440169
H       -0.4497315821    0.2371181235    1.5351487474
H        1.3375063382    0.5106788656    3.3392146040
H        2.4844057313    1.3665647263    2.3043684488
H        3.6999212771    0.1846941203    4.0722333079
H        2.1307659767   -1.1382206779    1.1778580212
13   
torsion grid (135,)
C        0.7599196210    1.1869325235    0.7188721056
C        2.5204242079    0.2626408155    2.1443017296
C        2.5241623898   -0.1894569021    3.5901985165
N        1.2152292934    0.0380914158    1.5098777267
F        1.6206205170    0.5562940085    4.3239515798
F        3.7664113152    0.0163017148    4.1387253502
H       -0.2468310083    0.9849702377    0.3416197826
H        0.7424131240    2.1339360602    1.2839380356
H        1.4161426016    1.3210605938   -0.1476828302
H        2.8002549557    1.3269839932    2.1548236917
H        3.3117802456   -0.2824237137    1.6164429292
H        2.2620306405   -1.2425633890    3.7338530051
H        0.5215605862   -0.1222849585    2.2370012124
13   
torsion grid (150,)
C        0.7768017349    1.1514130782    0.6577299715
C        2.4764555644    0.3316061552    2.1963191508
C        2.5515576048   -0.2499125512    3.5926498258
N        1.1568763665    0.0973013466    1.6044823946
F        1.6377021885    0.3824729183    4.4163477959
F        3.7992305447   -0.0293875561    4.1224933553
H       -0.2390723225    0.9631171363    0.2986274101
H        0.8183927425    2.1663414317    1.0882429660
H        1.4448744605    1.1258753336   -0.2100329116
H        2.7214048280    1.4031570942    2.2919500977
H        3.2581377139   -0.1353501657    1.5865214871
H        2.3428600432   -1.3224903549    3.6451225773
H        0.4688970201    0.1063385335    2.3554687143
13   
torsion grid (165,)
C        0.7919503668    1.1083309819    0.6096449313
C        2.4351894367    0.4119773647    2.2562440179
C        2.5759598188   -0.3005917327    3.5846341012
N        1.1063219447    0.1765624586    1.6967055534
F        1.6686185201    0.2168704586    4.4917226506
F        3.8317922527   -0.0880957066    4.0998704646
H       -0.2343547797    0.9366788855    0.2728551145
H        0.8980185613    2.1697754809    0.8923813238
H        1.4567449566    0.9186563468   -0.2401725813
H        2.6588148201    1.4790386663    2.4339962599
H        3.1996765724    0.0204736680    1.5759246013
H        2.4020780483   -1.3787483925    3.5331475783
H        0.4233079709    0.3195539202    2.4389688191
13   
torsion grid (180,)
C        0.8060103268    1.0589797874    0.5739922895
C        2.3985000910    0.4982927847    2.3222801044
C        2.5954504693   -0.3423250919    3.5657293624
N        1.0628334751    0.2728612381    1.7825105946
F        1.7106825121    0.0627908834    4.5486472389
F        3.8645542069   -0.1606647783    4.0628975306
H       -0.2268463329    0.8984767630    0.2519919306
H        0.9679188532    2.1431225961    0.7036014188
H        1.4632756464    0.7144683968   -0.2317080567
H        2.6128850616    1.5498681906    2.5829275470
H        3.1436797825    0.1810201882    1.5844558432
H        2.4352424147   -1.4112348810    3.4041404772
H        0.3799319831    0.5248263229    2.4944565540
