29   
torsion grid (-165,)
C        2.3187230947   -3.3793604984    0.5125667384
C        3.1997893125   -2.6018624903    1.2725467059
C        0.9382208581   -3.2409605357    0.6930958807
C        2.6974120923   -1.7147402279    2.2231515848
C        0.4335774712   -2.3592042324    1.6480461279
C       -0.2370794513   -3.3756380125    5.6937944454
C        0.3400143774   -4.6216529916    5.9176198889
C       -1.2187711930   -4.2108180698    3.6316960925
C        1.3108389273   -1.6114624682    2.4591269033
C       -0.9996398352   -3.1815620753    4.5404849765
C        0.1508022142   -5.6645128061    5.0008863457
C       -0.6360424656   -5.4600584643    3.8576871477
C        0.8672676360   -0.6482526650    3.4698453465
C       -0.3002262456   -0.4753197519    4.1185642791
O       -2.4372181621   -1.6516537463    2.9322661247
O       -2.4293681987   -1.1251802577    5.4332926703
S       -1.7248729686   -1.5601444358    4.2181953373
Cl       0.9086915790   -7.2001841140    5.3151915012
Cl      -0.8939108633   -6.7250461816    2.6867846834
H        2.7048310152   -4.0708743946   -0.2315664636
H        4.2723697539   -2.6814565013    1.1180814984
H        0.2498795491   -3.8127170425    0.0765279457
H        3.3845423470   -1.1091165624    2.8099408308
H       -0.6356723841   -2.2058584363    1.7215410014
H       -0.0953299358   -2.5690564841    6.4059952840
H        0.9411120275   -4.8005869091    6.8031365781
H       -1.8332754011   -4.0437649082    2.7545399278
H        1.6178380486    0.1032791752    3.7172691984
H       -0.4378055964    0.3487872548    4.8127962695
29   
torsion grid (-150,)
C        2.1605578916   -3.5721626186    0.7083502063
C        3.0540325807   -2.9191128044    1.5654288416
C        0.8090840096   -3.2131559757    0.7108451624
C        2.5900928730   -1.9283874962    2.4300309836
C        0.3387831336   -2.2346876670    1.5873613804
C       -0.1614899504   -3.3300889978    5.6346128465
C        0.5018467039   -4.5424092022    5.7976483550
C       -1.1040006597   -4.1391136862    3.5437639687
C        1.2209397187   -1.6029359981    2.4840980123
C       -0.9455616646   -3.1386181925    4.4956944345
C        0.3795452706   -5.5520034135    4.8336812804
C       -0.4323330326   -5.3525448867    3.7071991575
C        0.7885853812   -0.5637592534    3.4267191211
C       -0.3743243421   -0.4020686791    4.0822589536
O       -2.5129565552   -1.6427119694    2.9762172815
O       -2.4134288761   -1.1543569766    5.4840589276
S       -1.7496103803   -1.5462200476    4.2316846460
Cl       1.2521785013   -7.0406863161    5.0675523414
Cl      -0.6061469838   -6.5740735982    2.4766044841
H        2.5190063018   -4.3428234737    0.0313150419
H        4.1095021922   -3.1769927189    1.5534493074
H        0.1172189661   -3.6967568143    0.0266405371
H        3.2872078754   -1.4192963355    3.0919405626
H       -0.7034764147   -1.9372786489    1.5574789396
H       -0.0687436760   -2.5469030005    6.3802361492
H        1.1221107837   -4.7191641443    6.6702758106
H       -1.7342394169   -3.9728548508    2.6781936114
H        1.5303043237    0.2113336389    3.6235962482
H       -0.5464509898    0.4495841390    4.7344292066
29   
torsion grid (-135,)
C        1.9408535675   -3.7179165653    0.8439316001
C        2.7960247103   -3.2662074735    1.8555568382
C        0.7006429827   -3.1009030927    0.6562284983
C        2.4073426500   -2.2072094459    2.6767176682
C        0.2946283465   -2.0633389788    1.4975720197
C       -0.0766350653   -3.3031099649    5.5893479971
C        0.6831188600   -4.4635391491    5.7020458134
C       -0.9624394777   -4.0974306699    3.4675977484
C        1.1372309530   -1.6222778270    2.5329564464
C       -0.8745945771   -3.1263696788    4.4579985907
C        0.6392778104   -5.4361389657    4.6949025443
C       -0.1963460423   -5.2592784073    3.5818352487
C        0.7369047141   -0.5324936084    3.4406857318
C       -0.4296956782   -0.3681636532    4.0831951754
O       -2.5338660170   -1.6722066577    2.9899053597
O       -2.4161554870   -1.2277482446    5.5064540271
S       -1.7582220090   -1.5702237562    4.2362442480
Cl       1.6415445563   -6.8512708832    4.8562760487
Cl      -0.2864038415   -6.4467801385    2.3101043535
H        2.2419623092   -4.5427211592    0.2042043485
H        3.7650989923   -3.7357823871    2.0004482139
H        0.0394452327   -3.4384983238   -0.1371124239
H        3.0739264890   -1.8567708251    3.4613889506
H       -0.6754928974   -1.5976023662    1.3602711385
H       -0.0418204466   -2.5441639364    6.3644041447
H        1.3205266960   -4.6252421676    6.5651857358
H       -1.6009931937   -3.9408027420    2.6064637268
H        1.4820318849    0.2463285017    3.6085058597
H       -0.6348222515    0.4934624851    4.7125052874
29   
torsion grid (-120,)
C        1.8262415832   -3.7532978690    0.9024027779
C        2.6060147395   -3.4071258837    2.0117325442
C        0.6899813015   -3.0021024951    0.5896874559
C        2.2526332347   -2.3112462570    2.8003181531
C        0.3146721258   -1.9238908683    1.3950871656
C       -0.0014186818   -3.2920562145    5.5664496080
C        0.7777063015   -4.4398808553    5.6763002735
C       -0.8708327831   -4.0962485430    3.4406993438
C        1.0907885639   -1.5767883429    2.5123716326
C       -0.7989470990   -3.1259143687    4.4332880273
C        0.7471208937   -5.4125388755    4.6691681471
C       -0.0922380116   -5.2494041627    3.5566326317
C        0.6919946222   -0.4564550330    3.3922668188
C       -0.4509104682   -0.3416797888    4.0807157253
O       -2.4980045346   -1.7087560774    2.9765483376
O       -2.4020415261   -1.2916491770    5.5000942908
S       -1.7314234803   -1.5964684695    4.2270362697
Cl       1.7736382047   -6.8107072636    4.8279606623
Cl      -0.1774096091   -6.4483902108    2.2954317085
H        2.0994753587   -4.6088883157    0.2915909642
H        3.4861272261   -3.9924673197    2.2633294839
H        0.0813001695   -3.2669304152   -0.2705183272
H        2.8559142496   -2.0473259091    3.6655030423
H       -0.5876775825   -1.3630383482    1.1745625017
H        0.0183172363   -2.5357527506    6.3446695249
H        1.4182780245   -4.5924929437    6.5387563853
H       -1.5071704031   -3.9447548007    2.5768361711
H        1.4107660787    0.3557179219    3.5105371947
H       -0.6865038859    0.5166385236    4.7041483874
29   
torsion grid (-105,)
C        2.0500714428   -3.1970295585    0.8143664357
C        2.3350062831   -3.9904003343    1.9311678892
C        1.8151596886   -1.8289868648    0.9755184727
C        2.3931623913   -3.4154914270    3.2016129608
C        1.8532288521   -1.2527638982    2.2488249942
C       -0.6837007132   -3.9272544808    4.8943314613
C       -0.7518495336   -5.1753842404    4.2825127745
C       -1.0242587420   -2.8582023338    2.7336252483
C        2.1472761152   -2.0436632045    3.3688140614
C       -0.7977168158   -2.7833869723    4.1030719078
C       -0.9478585630   -5.2725187559    2.8992778836
C       -1.1024482746   -4.1121575707    2.1251936093
C        2.1380864559   -1.4559282921    4.7318950207
C        1.0608781679   -1.0821936636    5.4302776586
O       -0.8735737964   -0.1557194704    3.8195217995
O       -1.4452828239   -1.1622223927    6.1045557510
S       -0.6463339667   -1.1601889150    4.8695698966
Cl      -0.9845338436   -6.8545185708    2.1710825318
Cl      -1.3754308772   -4.1947382902    0.4067721570
H        1.9952982984   -3.6474713749   -0.1724105452
H        2.4997266642   -5.0579457912    1.8137569275
H        1.5810753410   -1.2108740842    0.1130846200
H        2.6004030263   -4.0352842943    4.0700603560
H        1.6305922617   -0.1985634140    2.3808524426
H       -0.5402057285   -3.8456949566    5.9670608659
H       -0.6538263250   -6.0840948110    4.8674721124
H       -1.1169727614   -1.9517976721    2.1466762267
H        3.0993124139   -1.3690875583    5.2411322357
H        1.1130343477   -0.6723988660    6.4356550946
29   
torsion grid (-90,)
C        2.0599184000   -3.2764248362    0.8671082807
C        2.2487154444   -4.0121541666    2.0416750894
C        1.9077695918   -1.8887065118    0.9323150152
C        2.2877679177   -3.3612649908    3.2760808431
C        1.9437305396   -1.2348325726    2.1681152536
C       -0.6714950443   -4.0119167797    4.8844400850
C       -0.7445233908   -5.2298643964    4.2146910599
C       -1.0285780631   -2.8410887975    2.7783987142
C        2.1401825491   -1.9678330287    3.3463138102
C       -0.7908814432   -2.8325209987    4.1485605943
C       -0.9512685815   -5.2605116411    2.8301594450
C       -1.1116047142   -4.0645980835    2.1124959283
C        2.1264068926   -1.2895139435    4.6700045250
C        1.0602192379   -1.0368353018    5.4342786154
O       -1.0363056756   -0.2082277800    4.0203344999
O       -1.3752660930   -1.3708821879    6.2788567099
S       -0.6709274461   -1.2487854342    4.9931685213
Cl      -0.9943142376   -6.8057981539    2.0277005208
Cl      -1.3997665253   -4.0672283653    0.3950087730
H        2.0127244312   -3.7853920062   -0.0911812576
H        2.3476775019   -5.0933345152    1.9983188875
H        1.7436783510   -1.3150168707    0.0242176899
H        2.4166059616   -3.9345970420    4.1897706888
H        1.7924360118   -0.1606955140    2.2236529026
H       -0.5262630876   -3.9787388161    5.9594436983
H       -0.6438970458   -6.1655034836    4.7550721332
H       -1.1305298995   -1.9076537332    2.2366821578
H        3.0962308177   -1.0333330987    5.1006208602
H        1.1334348387   -0.5702775122    6.4137532716
29   
torsion grid (-75,)
C        2.7591379980   -4.2909893781    1.9964559866
C        3.1365198585   -4.0993355687    3.3285426473
C        2.0142728196   -3.3070722897    1.3356382895
C        2.7582752720   -2.9364880327    4.0068942908
C        1.6530397006   -2.1360862680    2.0029760255
C       -0.3513587448   -4.1452904081    4.0579106415
C       -0.6592817504   -4.8525123898    2.8988957294
C       -1.6397125675   -2.2512162506    3.2341814049
C        2.0025151693   -1.9545799044    3.3506004481
C       -0.8322141306   -2.8461922074    4.2004827961
C       -1.4318281274   -4.2594958514    1.8962236431
C       -1.9319993034   -2.9572003948    2.0669241541
C        1.6164652197   -0.7049152514    4.0536418587
C        0.6689723612   -0.5680782986    4.9868612529
O       -1.5551927797   -1.2078084768    6.1693559909
O        0.4506946855   -2.7646686636    6.5077347864
S       -0.3592335433   -1.8871065049    5.6490143018
Cl      -1.7348194079   -5.1579346576    0.4351581177
Cl      -2.8998620839   -2.1856656712    0.8381676910
H        3.0434217057   -5.2002575745    1.4734783452
H        3.7182890679   -4.8576079787    3.8459284192
H        1.7107574343   -3.4539501317    0.3027179997
H        3.0229952748   -2.7990807566    5.0507733735
H        1.0718326485   -1.3748287531    1.4891475130
H        0.2745394666   -4.5778129083    4.8298579150
H       -0.2799945529   -5.8579355811    2.7509781896
H       -2.0258805365   -1.2464518354    3.3713785409
H        2.1240389167    0.2085100428    3.7399231890
H        0.4231857613    0.3815161245    5.4551939492
29   
torsion grid (-60,)
C        2.7916834196   -4.2933472562    2.0172914223
C        3.0529548389   -4.1084851988    3.3779549703
C        2.1344201488   -3.2919145778    1.2925150837
C        2.6400292630   -2.9390206557    4.0219449508
C        1.7509967569   -2.1086558784    1.9245728146
C       -0.3514531175   -4.1638928691    4.0743482216
C       -0.6796521026   -4.8438432565    2.9040802071
C       -1.6336208682   -2.2420349351    3.3093314851
C        1.9831332362   -1.9310633761    3.2986752153
C       -0.8171210730   -2.8638931963    4.2512369618
C       -1.4604707935   -4.2230265428    1.9253973359
C       -1.9486961955   -2.9212206327    2.1324714411
C        1.5350852903   -0.6883074823    3.9660998290
C        0.6707273362   -0.5830066821    4.9832819886
O       -1.4704824286   -1.2655304944    6.2804838396
O        0.5613306928   -2.8055448388    6.5092002419
S       -0.2921655274   -1.9244086137    5.6972930853
Cl      -1.7915759876   -5.0864296106    0.4494148493
Cl      -2.9294738064   -2.1166687940    0.9353915538
H        3.0990420077   -5.2102367522    1.5213401457
H        3.5667045578   -4.8801051040    3.9451999343
H        1.9200490054   -3.4334769798    0.2367879379
H        2.8117770176   -2.8091162785    5.0854391889
H        1.2391765097   -1.3332409910    1.3599837457
H        0.2806590990   -4.6187889984    4.8279587434
H       -0.3105742616   -5.8488774733    2.7296439407
H       -2.0062784364   -1.2357621359    3.4705641396
H        1.9399431798    0.2474616893    3.5780410372
H        0.3955432622    0.3668685520    5.4336566808
29   
torsion grid (-45,)
C        2.8748534579   -4.2255302840    1.9720146996
C        2.9611546887   -4.1027732518    3.3618984317
C        2.3582447921   -3.1699449459    1.2110020504
C        2.5064775131   -2.9457313865    3.9975438642
C        1.9380915438   -1.9975307095    1.8391094480
C       -0.3992740205   -4.1639677755    4.1863332182
C       -0.7682920490   -4.8784676688    3.0485939233
C       -1.6554209207   -2.2448385881    3.3760750964
C        1.9906436017   -1.8803805431    3.2396487722
C       -0.8330646703   -2.8485384047    4.3250460359
C       -1.5593912249   -4.2792020101    2.0648665614
C       -2.0137780571   -2.9592248993    2.2333335820
C        1.4740284974   -0.6565093863    3.8779556112
C        0.6641754756   -0.5463312321    4.9421123868
O       -1.4314396971   -1.1885998435    6.3211855899
O        0.5969654068   -2.7283824877    6.5506558346
S       -0.2686574789   -1.8672455259    5.7293940724
Cl      -1.9541076608   -5.1936459460    0.6360977945
Cl      -3.0105650437   -2.1795375921    1.0331319318
H        3.2141822109   -5.1340444452    1.4814976257
H        3.3715524221   -4.9145275257    3.9567636500
H        2.2864354462   -3.2600157350    0.1305899531
H        2.5556505046   -2.8620106780    5.0778049098
H        1.5373888345   -1.1788190928    1.2459790801
H        0.2346758004   -4.6075068279    4.9452209808
H       -0.4274254669   -5.8984055489    2.9052321350
H       -2.0033064082   -1.2254758717    3.5072781878
H        1.8004387704    0.2855409604    3.4350718593
H        0.3652170910    0.4147198616    5.3512539228
29   
torsion grid (-30,)
C        2.9970742215   -4.0173580822    1.7077903228
C        2.7595831801   -4.1362764575    3.0809513590
C        2.7764379529   -2.7926854083    1.0668966617
C        2.2771243826   -3.0503929975    3.8117247583
C        2.3125994754   -1.7004296976    1.7986105935
C       -0.6299647895   -4.2839362701    4.4705592919
C       -1.0664966680   -5.0973146109    3.4271295869
C       -1.5157374024   -2.3379299820    3.3131060095
C        2.0358177073   -1.8186738096    3.1748688755
C       -0.8523164088   -2.9109629302    4.3949972284
C       -1.7045054892   -4.5376156092    2.3162812591
C       -1.9318031208   -3.1513574039    2.2592013265
C        1.4875030847   -0.6491381352    3.8708077431
C        0.6529317937   -0.5596065382    4.9213537630
O       -1.4380408009   -1.1619664858    6.3180724460
O        0.5914582986   -2.6865932467    6.5937586833
S       -0.2764230386   -1.8554665105    5.7417883649
Cl      -2.1986778400   -5.5863272705    1.0169723080
Cl      -2.7215370634   -2.4138629635    0.8910032256
H        3.3649157569   -4.8691666950    1.1419504172
H        2.9515849451   -5.0791172612    3.5862679089
H        2.9684907151   -2.6902056595    0.0023871653
H        2.1276324773   -3.1437773104    4.8816885845
H        2.1416152463   -0.7495177673    1.2990658036
H       -0.1083112092   -4.7010978017    5.3252118595
H       -0.9006690112   -6.1692454843    3.4576093956
H       -1.6970113593   -1.2691432002    3.2697711829
H        1.8080313528    0.3124062990    3.4679508644
H        0.3519815356    0.4022065023    5.3270447941
29   
torsion grid (-15,)
C        3.2942807298   -3.9152576861    1.6641977129
C        2.8142429565   -4.1304214554    2.9609584203
C        3.2021417695   -2.6414883654    1.0927328504
C        2.2226009287   -3.0939821360    3.6813672582
C        2.6193078488   -1.6005254924    1.8135590441
C       -0.7493829075   -4.3164389843    4.5168537612
C       -1.2868198984   -5.1447864491    3.5338889474
C       -1.6540095971   -2.3761869196    3.3636423053
C        2.1088354251   -1.8098541772    3.1117913457
C       -0.9328702296   -2.9388617550    4.4137267426
C       -1.9915180694   -4.5975980043    2.4572882185
C       -2.1759624832   -3.2065453137    2.3714573704
C        1.4424842460   -0.6768158637    3.7569897817
C        0.6016605962   -0.5815686136    4.8046207785
O       -1.3793709167   -1.1720788017    6.3568930795
O        0.6636377536   -2.6956063248    6.5006902815
S       -0.2601721739   -1.8680340239    5.7053613965
Cl      -2.6243043899   -5.6683073639    1.2386969360
Cl      -3.0488762270   -2.4840958923    1.0464636791
H        3.7499730928   -4.7304967480    1.1084434661
H        2.9081854112   -5.1120890305    3.4176328377
H        3.5826207702   -2.4617054117    0.0910078195
H        1.9147969913   -3.2643568108    4.7053266111
H        2.5432976861   -0.6127977754    1.3645249893
H       -0.1860484361   -4.7275209687    5.3479398961
H       -1.1556893714   -6.2206311099    3.5879071763
H       -1.8054532054   -1.3038407415    3.2988310346
H        1.7038102021    0.2887716129    3.3224657793
H        0.2434431253    0.3851802149    5.1467427196
29   
torsion grid (0,)
C        2.8784024575   -2.2570807641    0.4439317784
C        1.5102882037   -2.1723840927    0.7271838789
C        3.8111525060   -1.9435467034    1.4380060778
C        1.0691156551   -1.7926646161    1.9932234435
C        3.3723497716   -1.5660036503    2.7059108744
C       -0.7192977008   -4.0963163355    5.4099560776
C       -0.6617814561   -5.4660975338    5.1741240851
C       -1.4776935781   -3.7431494477    3.1260402353
C        1.9959784778   -1.4836694285    3.0097191194
C       -1.1139207497   -3.2470085939    4.3734598812
C       -1.0043347802   -5.9836720156    3.9176298667
C       -1.4192359508   -5.1197811118    2.8931153393
C        1.6517688876   -1.1550322375    4.3938929250
C        0.5039681407   -1.0449882829    5.0926659323
O       -1.6105733823   -0.8390284273    3.4042395923
O       -1.9400429034   -1.2450535609    5.9081791697
S       -1.1846169532   -1.4655989222    4.6666238484
Cl      -0.9070157494   -7.7037821286    3.6668951820
Cl      -1.8626445297   -5.7192670092    1.3177055943
H        3.2139768346   -2.5556416124   -0.5457020387
H        0.7814620620   -2.3976398607   -0.0467256460
H        4.8755560812   -1.9979212110    1.2267341653
H        0.0107276272   -1.6684943648    2.1690924466
H        4.1024493436   -1.3359460452    3.4785356674
H       -0.4670084273   -3.6971741858    6.3871931831
H       -0.3557837231   -6.1489401512    5.9600006051
H       -1.8157718456   -3.0705540014    2.3457498747
H        2.5249473685   -0.8873922259    4.9900711299
H        0.5283380040   -0.7359289824    6.1336617741
29   
torsion grid (15,)
C        2.5877841828   -2.7399000436    0.7077121196
C        1.2705752497   -2.3168856460    0.9168021386
C        3.5482592568   -2.5329855600    1.7041420501
C        0.9003025255   -1.7157610746    2.1189718814
C        3.1828044816   -1.9268017938    2.9050382357
C       -0.4073546447   -3.9915643701    5.3844595640
C       -0.1766708463   -5.3295478433    5.0805754203
C       -1.3662971778   -3.6638526143    3.1741208653
C        1.8521555734   -1.5215590883    3.1399382474
C       -0.9874031756   -3.1688728850    4.4169861497
C       -0.5283664511   -5.8412381264    3.8243557652
C       -1.1306500621   -5.0068472219    2.8710366212
C        1.5406393643   -0.9859320697    4.4666921373
C        0.3870299135   -0.8071185640    5.1389726683
O       -1.8266219547   -0.8088795835    3.5692629497
O       -1.9683061955   -1.3290841931    6.0676328082
S       -1.2596362260   -1.4216126214    4.7826941376
Cl      -0.2014143130   -7.5170802418    3.4834162354
Cl      -1.5777270101   -5.5962332424    1.2928325789
H        2.8668584626   -3.2136867911   -0.2296685337
H        0.5269415603   -2.4533117088    0.1362750069
H        4.5768591065   -2.8450207122    1.5453082521
H       -0.1053455985   -1.3330598570    2.2382523670
H        3.9302464222   -1.7766965915    3.6808917371
H       -0.1389372848   -3.5962485624    6.3589238651
H        0.2768589377   -5.9913122273    5.8112217276
H       -1.8354418523   -3.0118527149    2.4461630846
H        2.4159107116   -0.6233441918    5.0072299068
H        0.3822261853   -0.3474124577    6.1231817823
29   
torsion grid (30,)
C        2.3694979057   -2.9172220696    0.7960152385
C        1.1510826860   -2.2445306205    0.9312060313
C        3.3041098895   -2.8779096009    1.8373551978
C        0.8467041365   -1.5625747876    2.1097202839
C        3.0103488719   -2.1818378206    3.0092391587
C       -0.3210263113   -3.9477628578    5.3558632002
C        0.0073288802   -5.2567935076    5.0169662574
C       -1.2244789256   -3.6062792583    3.1245059849
C        1.7694645664   -1.5350275480    3.1722024847
C       -0.9200425774   -3.1314157171    4.3949064889
C       -0.2631843945   -5.7438216620    3.7312298614
C       -0.8882364694   -4.9184445890    2.7847861255
C        1.4908094499   -0.8916386151    4.4613598469
C        0.3362432429   -0.7085526954    5.1266571095
O       -1.9044003712   -0.8056204242    3.6046924135
O       -1.9658931349   -1.3759737225    6.0961306733
S       -1.2824363665   -1.4103735288    4.7944539659
Cl       0.1933032362   -7.3790692666    3.3441112635
Cl      -1.2321384961   -5.4754908011    1.1697283485
H        2.5949285612   -3.4584306428   -0.1188843257
H        0.4311006847   -2.2561940099    0.1174829775
H        4.2583986831   -3.3872005637    1.7343117788
H       -0.0871699496   -1.0182800482    2.1939090873
H        3.7372256442   -2.1549706233    3.8180160084
H       -0.1123966622   -3.5684218160    6.3510929002
H        0.4778926576   -5.9133830684    5.7414830601
H       -1.7074498823   -2.9587536603    2.4022683496
H        2.3685250915   -0.4855641044    4.9660365675
H        0.3068729699   -0.1834506113    6.0772790607
29   
torsion grid (45,)
C        2.0889935796   -3.0214916833    0.8514588182
C        1.0736756875   -2.0629477771    0.9161458695
C        2.9160510742   -3.2350358448    1.9601376297
C        0.8578456400   -1.3431131220    2.0927737849
C        2.7265746837   -2.4922551825    3.1258998540
C       -0.2306326380   -3.9211132950    5.3334207590
C        0.2077854398   -5.1920698488    4.9745614947
C       -1.0576907657   -3.5765612394    3.0716166218
C        1.6814251113   -1.5556644008    3.2119434111
C       -0.8394808966   -3.1201731189    4.3660091957
C        0.0329395361   -5.6550776037    3.6641163831
C       -0.6145742617   -4.8515408604    2.7137283875
C        1.4503242150   -0.8541783716    4.4870534218
C        0.2923687884   -0.6566464535    5.1360430631
O       -1.9297331007   -0.8300754071    3.5969538790
O       -1.9877068121   -1.4406684318    6.0802467016
S       -1.2944339293   -1.4256866893    4.7830334986
Cl       0.6388941572   -7.2341633663    3.2489017035
Cl      -0.8604461101   -5.3922191297    1.0756982733
H        2.2348765036   -3.6005001712   -0.0560648351
H        0.4326901960   -1.8902633926    0.0560009314
H        3.7065950639   -3.9790843573    1.9154158063
H        0.0538852342   -0.6169146204    2.1481376647
H        3.3678508127   -2.6622611585    3.9876952469
H       -0.0930006174   -3.5560955815    6.3462115627
H        0.6937179996   -5.8346942190    5.7014367057
H       -1.5463238108   -2.9388607941    2.3446880765
H        2.3349546838   -0.4320748769    4.9661421126
H        0.2331961166   -0.0979462557    6.0660390057
29   
torsion grid (60,)
C        1.9778740791   -3.0305350888    0.8711730209
C        1.1041933059   -1.9397756714    0.8807037093
C        2.6908077559   -3.3611237499    2.0291345642
C        0.9200588395   -1.1942875239    2.0480053143
C        2.5337653963   -2.5998011020    3.1881487026
C       -0.1674934282   -3.9294851285    5.3309821708
C        0.2932236811   -5.1935136975    4.9749320337
C       -0.9707952250   -3.5916016571    3.0590430151
C        1.6295387224   -1.5256286253    3.2132959497
C       -0.7734295342   -3.1348382542    4.3568089174
C        0.1370253765   -5.6585746822    3.6632096513
C       -0.5124612287   -4.8626743965    2.7073177030
C        1.4232971494   -0.7666097011    4.4665133264
C        0.2768086534   -0.6301814617    5.1448561517
O       -1.9102526599   -0.8709490633    3.5839432941
O       -1.9879822106   -1.4973654305    6.0644609079
S       -1.2784175226   -1.4556355132    4.7767180006
Cl       0.7702222689   -7.2284398624    3.2523210074
Cl      -0.7498507857   -5.4150854817    1.0722182413
H        2.0971535256   -3.6261108075   -0.0292971451
H        0.5477795495   -1.6795341814   -0.0155549764
H        3.3651820337   -4.2130234837    2.0294436478
H        0.2137999285   -0.3707679342    2.0668358537
H        3.0831674205   -2.8621258509    4.0889497468
H       -0.0493884724   -3.5654892838    6.3466241646
H        0.7803368705   -5.8301550556    5.7062786068
H       -1.4538864845   -2.9564694896    2.3259350657
H        2.3006236524   -0.2829357906    4.8985216018
H        0.1916551497   -0.0489868546    6.0591055721
29   
torsion grid (75,)
C        1.9588367267   -3.0334450853    0.9029857654
C        1.1667543611   -1.8834165862    0.8496944560
C        2.5735888905   -3.3992058074    2.1055593743
C        0.9729128599   -1.1076888411    1.9966999897
C        2.3975150478   -2.6169401338    3.2479676085
C       -0.1255222243   -3.9810316209    5.3527018007
C        0.3290330503   -5.2391682785    4.9684668965
C       -0.9486551742   -3.5983072477    3.0937525571
C        1.5741609275   -1.4811648134    3.2071232202
C       -0.7383298023   -3.1676481858    4.3987899967
C        0.1566600370   -5.6798715437    3.6505046467
C       -0.5001734999   -4.8648649297    2.7154292321
C        1.3733440602   -0.6667193032    4.4319340954
C        0.2687479657   -0.6225122528    5.1838519370
O       -1.9377525766   -0.9202799382    3.6916812826
O       -1.9356453971   -1.5858040433    6.1655529458
S       -1.2635078588   -1.5072702674    4.8596208144
Cl       0.7802636725   -7.2441156987    3.2047225132
Cl      -0.7589687672   -5.3902266999    1.0750145010
H        2.0886923710   -3.6482388803    0.0170611478
H        0.6851674854   -1.5959984843   -0.0809647667
H        3.1835440449   -4.2970421841    2.1548354426
H        0.3292182269   -0.2340349856    1.9659940963
H        2.8679906490   -2.9073208500    4.1837102088
H       -0.0010349915   -3.6373130333    6.3746463770
H        0.8215531917   -5.8907237138    5.6828947074
H       -1.4345809848   -2.9465452976    2.3769337377
H        2.2275399522   -0.0875797264    4.7860512710
H        0.1788341871   -0.0190655259    6.0834246263
29   
torsion grid (90,)
C        1.9995204979   -3.1161380245    0.9252406252
C        1.2686798454   -1.9347968021    0.7722121296
C        2.5086280484   -3.4597888713    2.1819619119
C        1.0360330678   -1.1028052925    1.8720934533
C        2.2818993547   -2.6290700106    3.2807570188
C       -0.0847582089   -4.0645084374    5.3279341092
C        0.3428981072   -5.3079769117    4.8711144702
C       -0.9826602920   -3.5724736765    3.1175256974
C        1.5203719549   -1.4595776956    3.1377569401
C       -0.7210540300   -3.2040435215    4.4330426876
C        0.1204045789   -5.6853746496    3.5413650410
C       -0.5602855063   -4.8235059645    2.6664615764
C        1.2976314932   -0.5725295837    4.3104152666
C        0.2614731316   -0.5972851824    5.1532353747
O       -2.0669743846   -0.9900306892    3.9273960191
O       -1.7509376523   -1.7125120530    6.3660624320
S       -1.2400459777   -1.5752778329    4.9933745182
Cl       0.7122338496   -7.2325298762    3.0032396329
Cl      -0.8826672540   -5.2735978787    1.0153449699
H        2.1632405420   -3.7707435723    0.0741287265
H        0.8692485597   -1.6638340303   -0.2012750090
H        3.0734027483   -4.3793793871    2.3085151273
H        0.4468515519   -0.1972121908    1.7590189652
H        2.6694913267   -2.9015316979    4.2583890959
H        0.0723333095   -3.7685855182    6.3602081979
H        0.8516937644   -5.9967566197    5.5376192231
H       -1.4918482680   -2.8865594619    2.4501259626
H        2.0971553371    0.1311809069    4.5484040656
H        0.1818403202    0.0614711981    6.0146883231
29   
torsion grid (105,)
C        3.0350612660   -3.5096362445    2.1474813200
C        1.9354980442   -3.0729615334    1.3993404924
C        3.3300506306   -2.8994604627    3.3698191413
C        1.1432103996   -2.0243893127    1.8682499045
C        2.5255135943   -1.8623671430    3.8522599925
C        0.2256970742   -4.2253869108    4.4363456029
C        0.2073775867   -5.2248050594    3.4670138087
C       -1.7545376067   -3.2307968432    3.4298192585
C        1.4311542206   -1.4136397607    3.0994123572
C       -0.7479410630   -3.2311481158    4.3926700536
C       -0.7678159698   -5.2207718887    2.4657640338
C       -1.7587619459   -4.2241360972    2.4503918917
C        0.5522201302   -0.3315480212    3.6110406287
C       -0.3455940163   -0.4263985151    4.5971895280
O       -2.0433269143   -1.6738629503    6.1174557534
O        0.4448271274   -2.1554004192    6.4889750061
S       -0.6874672419   -1.8871966184    5.5893480279
Cl      -0.7093761773   -6.4547856630    1.2377553503
Cl      -2.9921740300   -4.1849635542    1.2178321519
H        3.6536165518   -4.3240987271    1.7798472943
H        1.6894407495   -3.5550408479    0.4571644529
H        4.1786886896   -3.2381351675    3.9582141319
H        0.2848153833   -1.6924986439    1.2901353576
H        2.7310895172   -1.4123546045    4.8185047203
H        0.9949280769   -4.1963738628    5.1993698294
H        0.9657604930   -6.0003436736    3.4637889382
H       -2.5203275903   -2.4620468572    3.4243075239
H        0.6011538513    0.6274675608    3.0926002345
H       -0.9749107921    0.4024914474    4.9107074306
29   
torsion grid (120,)
C        3.0869242235   -3.4882695948    2.1331891763
C        2.0502724023   -3.0223211011    1.3156717942
C        3.2750403983   -2.9324164669    3.4018992331
C        1.2137733136   -1.9989779603    1.7625595313
C        2.4184099470   -1.9307965820    3.8663449354
C        0.2345270817   -4.2344099504    4.4708127751
C        0.2048766434   -5.2186302992    3.4859529936
C       -1.7564011521   -3.2221595251    3.5046554225
C        1.3783343504   -1.4600623960    3.0493740815
C       -0.7366764150   -3.2371368475    4.4536286635
C       -0.7824529153   -5.1976302648    2.4971249905
C       -1.7743390009   -4.2017593693    2.5118407832
C        0.4625117222   -0.3997603532    3.5265967053
C       -0.3440241245   -0.4472089097    4.5943196300
O       -1.9732293451   -1.6601814805    6.2089755395
O        0.5232865532   -2.1415300753    6.5063656940
S       -0.6360905884   -1.8827375641    5.6385916114
Cl      -0.7397568916   -6.4105675344    1.2478701904
Cl      -3.0251986178   -4.1450466644    1.2975457680
H        3.7441788210   -4.2783772974    1.7798172584
H        1.8933696979   -3.4564934939    0.3320887045
H        4.0810697721   -3.2864587929    4.0391386508
H        0.4084903980   -1.6396735974    1.1266170272
H        2.5423644623   -1.5221210781    4.8638990915
H        1.0133305470   -4.2182466867    5.2242523754
H        0.9631560114   -5.9939226999    3.4610147639
H       -2.5186292067   -2.4499759376    3.5170259107
H        0.4272702482    0.5166527140    2.9357566637
H       -0.9841297456    0.3785712171    4.8930125362
29   
torsion grid (135,)
C        3.1716534036   -3.4057939117    2.0540850719
C        2.2354944595   -2.8322269238    1.1852437461
C        3.2232147361   -2.9945736392    3.3892736945
C        1.3589741068   -1.8526169924    1.6520223275
C        2.3237176680   -2.0402112513    3.8686014805
C        0.1851637945   -4.2633372618    4.5464627119
C        0.1228752827   -5.2693789222    3.5847270474
C       -1.7862639965   -3.2232691033    3.5717348262
C        1.3698438894   -1.4732097547    3.0057987975
C       -0.7606001489   -3.2422337156    4.5144673719
C       -0.8737586791   -5.2482893332    2.6053384637
C       -1.8393705541   -4.2261332304    2.6041123833
C        0.4228468154   -0.4466000999    3.4780057813
C       -0.3341253263   -0.4599273317    4.5854640334
O       -1.9510018014   -1.6099488322    6.2514389357
O        0.5376253658   -2.1266916619    6.5348395490
S       -0.6241438818   -1.8645829074    5.6705208535
Cl      -0.8833411956   -6.4994888240    1.3938448070
Cl      -3.1048560553   -4.1708229542    1.4051715984
H        3.8637435798   -4.1591312606    1.6871440874
H        2.1948832487   -3.1425812726    0.1447583806
H        3.9607117185   -3.4218405635    4.0636471877
H        0.6363296055   -1.4045475414    0.9740112099
H        2.3559606240   -1.7340218388    4.9086939364
H        0.9674612193   -4.2530541052    5.2963694900
H        0.8593028663   -6.0659704083    3.5737637204
H       -2.5289236728   -2.4321742325    3.5718015407
H        0.3349947926    0.4438142188    2.8541273657
H       -0.9810760110    0.3673389555    4.8638158911
29   
torsion grid (150,)
C        3.1977496451   -3.2160239849    1.8190821079
C        2.4367513867   -2.4009403611    0.9729448200
C        3.0529670820   -3.1034807393    3.2055801409
C        1.5313391658   -1.4898790337    1.5150431905
C        2.1334982421   -2.2071952414    3.7510628952
C        0.0168192933   -4.3667974194    4.8723905425
C       -0.0705456599   -5.4861713620    4.0474028369
C       -1.7052107397   -3.2706884105    3.5504761445
C        1.3408201315   -1.4058993714    2.9079797567
C       -0.7964099820   -3.2679762694    4.6058473884
C       -0.9525278331   -5.4971964606    2.9629588958
C       -1.7752353041   -4.3844789878    2.7139060602
C        0.3671114664   -0.4334562186    3.4188243246
C       -0.4028946975   -0.4581985626    4.5205288723
O       -2.0114610202   -1.5423937566    6.2302647328
O        0.4774187919   -2.0148952024    6.5514569206
S       -0.6809158408   -1.8108902304    5.6647892881
Cl      -1.0021083164   -6.9030233505    1.9365367063
Cl      -2.8881242503   -4.3579849384    1.3720490084
H        3.9111765998   -3.9205198543    1.3997852118
H        2.5560615413   -2.4701928348   -0.1047936527
H        3.6638002492   -3.7122669918    3.8669904610
H        0.9458946610   -0.8528208996    0.8558518139
H        2.0550729162   -2.1020429547    4.8274775913
H        0.7137756789   -4.3356826501    5.7028040830
H        0.5557617560   -6.3535981070    4.2282067755
H       -2.3459407704   -2.4157155372    3.3615890703
H        0.2471268353    0.4587643201    2.8032420935
H       -1.0662350817    0.3645487445    4.7722363886
29   
torsion grid (165,)
C        3.4557217840   -3.0045582381    1.7411917821
C        2.7835717554   -2.0840659531    0.9294640370
C        3.1270895035   -3.1018190042    3.0977138288
C        1.7791153298   -1.2848503207    1.4726146637
C        2.1153661025   -2.3115062516    3.6417081888
C       -0.0676514345   -4.4360384446    4.9253381009
C       -0.2553620496   -5.5949488043    4.1743590724
C       -1.8471004862   -3.3487220571    3.6753150083
C        1.4007160520   -1.4117931816    2.8253427945
C       -0.8613589218   -3.3222834433    4.6592347892
C       -1.2223131590   -5.6338764141    3.1654906623
C       -2.0230460210   -4.5052231766    2.9155316473
C        0.3485801468   -0.5186113997    3.3172254430
C       -0.4185662435   -0.5318436180    4.4236371470
O       -1.9229951114   -1.5039666010    6.2884143850
O        0.5705353966   -2.0256080716    6.4590825232
S       -0.6406634381   -1.8243030756    5.6447292882
Cl      -1.4073460971   -7.0948224780    2.2362260499
Cl      -3.2450512071   -4.5143291771    1.6721888959
H        4.2450076732   -3.6247447486    1.3245916744
H        3.0489828295   -1.9834923519   -0.1193270756
H        3.6743743392   -3.7860600723    3.7407539507
H        1.2634221541   -0.5656083648    0.8402671748
H        1.9234120537   -2.3501800721    4.7066317214
H        0.6861388883   -4.3908108511    5.7039831991
H        0.3519354844   -6.4751186420    4.3587107998
H       -2.4737494491   -2.4831175472    3.4875665481
H        0.1749855107    0.3472354965    2.6774144085
H       -1.1260200172    0.2675378283    4.6246997712
29   
torsion grid (180,)
C        2.4662575051   -3.0567894498    0.1933356868
C        3.2860665352   -2.1474223982    0.8697951529
C        1.1313175205   -3.2093839568    0.5851232059
C        2.7752908934   -1.4186729001    1.9424320817
C        0.6182072694   -2.4804914238    1.6563172263
C       -0.3866813252   -3.4674964610    5.8094087727
C        0.0527758834   -4.7486163434    6.1274461557
C       -1.3372096684   -4.3164891016    3.7377059023
C        1.4434011735   -1.5927888727    2.3768955969
C       -1.0668780127   -3.2647766652    4.6066756739
C       -0.1931341025   -5.8185091088    5.2565406366
C       -0.8948050492   -5.6018644420    4.0610758736
C        1.0039486793   -0.7582952505    3.4965651304
C       -0.1472019923   -0.6230434889    4.1848422181
O       -2.2437367833   -1.6952613843    2.8370498018
O       -2.4233352371   -1.0933295098    5.3152664886
S       -1.6443700554   -1.6066945164    4.1792336953
Cl       0.3856680859   -7.4016762175    5.6921652301
Cl      -1.2255678617   -6.9026630469    2.9492654408
H        2.8583652579   -3.6277627745   -0.6441352233
H        4.3171942446   -2.0035955892    0.5589611548
H        0.4806279036   -3.8889850826    0.0414444703
H        3.4177054814   -0.7135191429    2.4649689152
H       -0.4336068455   -2.5572706731    1.8890918902
H       -0.2051111293   -2.6416170293    6.4897945271
H        0.5870386312   -4.9345829507    7.0534455919
H       -1.8908319765   -4.1416447620    2.8216588527
H        1.7624720073   -0.0396624857    3.8089927490
H       -0.2362453321    0.1342985904    4.9582932171
