14   
torsion grid (-165,)
C       -0.2059695397   -1.0365366147   -1.6478545803
C       -0.4649863642   -0.5018414032   -0.2365480871
C        0.2753515778    1.1747599989    1.5960951488
C        0.4923274478    0.6084348176    0.1890544801
Cl      -1.4740893475    1.4991030621    1.9742098188
Cl       2.2089771399   -0.0506073916    0.2206825077
H        0.7731688952   -1.5156130577   -1.7261999226
H       -0.9679305621   -1.7745431025   -1.9165603961
H       -0.2476330479   -0.2292769594   -2.3880753201
H       -1.4772738407   -0.0891242481   -0.1870285304
H       -0.4190469718   -1.3130130434    0.4990299640
H        0.8127855883    2.1127108992    1.7307734583
H        0.6046991229    0.4557943020    2.3452799547
H        0.5031190486    1.4107223874   -0.5517253937
14   
torsion grid (-150,)
C       -0.2005812827   -1.0211018067   -1.6385915132
C       -0.4837702872   -0.4594503768   -0.2425090832
C        0.2777301076    1.2278293610    1.5977085042
C        0.5110942096    0.6088639116    0.2051852461
Cl      -1.4616647005    1.2558969467    2.1300927195
Cl       2.1947449718   -0.1291829471    0.2793553008
H        0.7544586760   -1.5507864297   -1.6770438630
H       -0.9896808726   -1.7219702250   -1.9278037503
H       -0.1736922646   -0.2211280114   -2.3875069415
H       -1.4752485049    0.0036502697   -0.2351570178
H       -0.5084113288   -1.2632281307    0.5011684115
H        0.6388104680    2.2549881829    1.6357686279
H        0.7878500014    0.6398699178    2.3579009900
H        0.5816019452    1.3927142699   -0.5515717894
14   
torsion grid (-135,)
C       -0.2060445294   -1.0138104221   -1.6566025622
C       -0.5021826801   -0.4458917189   -0.2659378274
C        0.2759776156    1.2416105220    1.5864239431
C        0.5367188593    0.5619811443    0.2193065040
Cl      -1.3905065003    0.9978127653    2.2718072656
Cl       2.1806499663   -0.2549661158    0.3364515322
H        0.7159061635   -1.6003367158   -1.6661899780
H       -1.0255648079   -1.6639703865   -1.9780354102
H       -0.1045501078   -0.2128675075   -2.3981179447
H       -1.4654757131    0.0745739756   -0.2849173449
H       -0.5985449295   -1.2508429180    0.4693098478
H        0.4190282230    2.3192442296    1.5125133599
H        0.9487788556    0.8465319652    2.3434504674
H        0.6769598427    1.3307130050   -0.5431653860
14   
torsion grid (-120,)
C       -0.2100149142   -0.9897654563   -1.6586710525
C       -0.5139554231   -0.4259444475   -0.2682362928
C        0.2654596047    1.2741849407    1.5730480577
C        0.5636205195    0.5171848964    0.2571216028
Cl      -1.2796995705    0.8127974525    2.4103648516
Cl       2.1580224864   -0.3802569222    0.4523324353
H        0.6934392359   -1.6048034530   -1.6539524216
H       -1.0421977949   -1.6118667569   -2.0021995043
H       -0.0684200945   -0.1863949624   -2.3908746252
H       -1.4489113498    0.1452995312   -0.3004648889
H       -0.6703935578   -1.2337602998    0.4522734955
H        0.1730396250    2.3416593825    1.3716610922
H        1.0563145971    1.1200106579    2.3027618676
H        0.7916316605    1.2598620927   -0.5106338466
14   
torsion grid (-105,)
C       -0.2123730761   -0.9692875418   -1.6716197489
C       -0.5252797572   -0.4053417054   -0.2833577697
C        0.2556344878    1.2771124760    1.5524569840
C        0.5828801146    0.4755873660    0.2813370113
Cl      -1.1107836912    0.6203747277    2.5507204336
Cl       2.1250385268   -0.4875530099    0.5481510768
H        0.6572615544   -1.6310595328   -1.6455759009
H       -1.0646809206   -1.5437728420   -2.0471675708
H       -0.0060013776   -0.1678037287   -2.3902990021
H       -1.4304519289    0.2132442182   -0.3285830692
H       -0.7385104867   -1.2118595601    0.4231338815
H       -0.0665693819    2.2798467322    1.2662071285
H        1.1191546555    1.3547934522    2.2091963516
H        0.8838897543    1.2039564042   -0.4765459758
14   
torsion grid (-90,)
C       -0.1689152073   -1.1260156920   -1.6202664291
C       -0.2526920297   -0.7419468471   -0.1362433300
C       -0.4595685315    1.8162046316   -0.5925829121
C        0.2575340964    0.6715539164    0.1234256472
Cl      -2.2533952907    1.6019078059   -0.7475867120
Cl       0.3216913298    1.0104423679    1.9231833717
H        0.8554652386   -1.0350626922   -1.9998824278
H       -0.4797461644   -2.1663828407   -1.7554401967
H       -0.8221318210   -0.5041406305   -2.2388223377
H       -1.2810981276   -0.8259516443    0.2237673145
H        0.3558603023   -1.4290700937    0.4589650472
H       -0.0893368027    1.8821918339   -1.6176184846
H       -0.2901524792    2.7661928265   -0.0892550713
H        1.3069093282    0.7383742606   -0.1804217212
14   
torsion grid (-75,)
C       -0.1418651499   -1.1206490096   -1.6327173074
C       -0.2494695998   -0.7204421595   -0.1550495366
C       -0.4680220316    1.8024947878   -0.6928978083
C        0.2267622564    0.7071699717    0.1046589489
Cl      -2.2751392511    1.7206821971   -0.6241097081
Cl       0.1208585398    1.0776924886    1.8914407032
H        0.8761922262   -0.9840351339   -2.0158250925
H       -0.4008882187   -2.1767486444   -1.7540019248
H       -0.8259516708   -0.5417927427   -2.2603847956
H       -1.2824860748   -0.8183244862    0.1887914526
H        0.3583690203   -1.3915968276    0.4590566901
H       -0.1974736736    1.7113652967   -1.7466556963
H       -0.1800131488    2.7892021502   -0.3320285526
H        1.2940184867    0.7910386698   -0.1255594538
14   
torsion grid (-60,)
C        0.0055419671   -1.2245217706   -1.5241405209
C        0.0635389269   -0.6989301956   -0.0877681892
C       -0.1714448966    1.3324831610    1.4522402290
C       -0.0212817823    0.8229594436    0.0235890796
Cl       1.2539678365    0.9898326195    2.5107078947
Cl       1.4236957858    1.5997231242   -0.7755604216
H        0.8593061549   -0.8729185031   -2.1091359632
H        0.0180959609   -2.3187605298   -1.5302044420
H       -0.9095453768   -0.8968769008   -2.0308604935
H       -0.7797709947   -1.1062275177    0.4863956517
H        0.9763550897   -1.0393546263    0.4097647114
H       -1.0370330623    0.8543642272    1.9166641572
H       -0.3055532188    2.4144283558    1.4635456821
H       -0.8858225635    1.1934150778   -0.5370832296
14   
torsion grid (-45,)
C        0.0096049686   -1.2184192725   -1.5392053653
C        0.0220717963   -0.7033744058   -0.0980374709
C       -0.1546487537    1.2903378634    1.4822340515
C        0.0013521377    0.8220299067    0.0310138328
Cl       1.3527021332    1.2274845438    2.4748965520
Cl       1.4968312303    1.5204575587   -0.7373806245
H        0.9093522218   -0.9132642384   -2.0790849472
H       -0.0394984908   -2.3116526057   -1.5520275091
H       -0.8593674760   -0.8374411400   -2.0881816304
H       -0.8665945021   -1.0780876517    0.4275136431
H        0.8939547154   -1.0888995200    0.4408485860
H       -0.9013274081    0.6723819994    1.9843290629
H       -0.4752292506    2.3324677119    1.5101343061
H       -0.8373425119    1.2365114286   -0.5364203981
14   
torsion grid (-30,)
C       -0.0062703478   -1.2205711981   -1.5575660577
C       -0.0137468703   -0.7145357586   -0.1133281734
C       -0.1264846672    1.2506103923    1.5038011503
C        0.0427945187    0.8095659631    0.0329804246
Cl       1.3908084647    1.4973693082    2.4484548791
Cl       1.5812145163    1.4276308534   -0.7149557877
H        0.9262849824   -0.9645885646   -2.0659564098
H       -0.1175508012   -2.3091280335   -1.5789938400
H       -0.8336364934   -0.7875139474   -2.1316295772
H       -0.9389015778   -1.0459292827    0.3771871546
H        0.8175065846   -1.1508514655    0.4520986924
H       -0.7176379171    0.5066263135    2.0390800867
H       -0.6436201649    2.2096735318    1.5469815821
H       -0.7609978670    1.2703414102   -0.5470865733
14   
torsion grid (-15,)
C       -0.0307658021   -1.2138697984   -1.5676920700
C       -0.0395727079   -0.7153249047   -0.1209277720
C       -0.1081068930    1.2339587994    1.5162225958
C        0.0942021850    0.8025496024    0.0357558215
Cl       1.3404397214    1.8153352993    2.4192106361
Cl       1.6708933474    1.3527830868   -0.6814826197
H        0.9249512071   -1.0078705931   -2.0552115830
H       -0.2031263393   -2.2942369709   -1.5982652992
H       -0.8203296445   -0.7314939355   -2.1553962804
H       -0.9904036440   -1.0001317098    0.3496740831
H        0.7564090115   -1.1977237127    0.4584427334
H       -0.5017454051    0.3925851373    2.0867251231
H       -0.8243280969    2.0543321804    1.5647536706
H       -0.6663270003    1.3029655662   -0.5677894939
14   
torsion grid (0,)
C       -0.0623651853   -1.1949091620   -1.5809839961
C       -0.0619403566   -0.7180642011   -0.1269573389
C       -0.0933071347    1.2047158159    1.5304419843
C        0.1526738220    0.7866258029    0.0505158810
Cl       1.2205915397    2.0952497869    2.3850749541
Cl       1.7743979333    1.2744615945   -0.6089318314
H        0.9060387999   -1.0218857563   -2.0563989508
H       -0.2802664328   -2.2663096648   -1.6299686287
H       -0.8252263541   -0.6701769868   -2.1674068991
H       -1.0319274124   -0.9571411203    0.3306832942
H        0.7001910344   -1.2505114943    0.4541743001
H       -0.2724044153    0.3133360609    2.1321408841
H       -0.9749960621    1.8436377974    1.5837730246
H       -0.5522606194    1.3329308238   -0.5795349314
14   
torsion grid (15,)
C       -0.0999369366   -1.1754813732   -1.5911367583
C       -0.0812115089   -0.7258341471   -0.1284427552
C       -0.0748499257    1.1696399289    1.5398088813
C        0.2104587828    0.7617238558    0.0713647381
Cl       1.0609754048    2.3292755033    2.3228428039
Cl       1.8814681946    1.1781865906   -0.5123161221
H        0.8746560829   -1.0271566576   -2.0627964387
H       -0.3548296027   -2.2374998763   -1.6603941328
H       -0.8436817744   -0.6132297876   -2.1669332644
H       -1.0622302480   -0.9246756275    0.3256393993
H        0.6526284121   -1.3051670546    0.4437914252
H       -0.0504963226    0.2826112912    2.1743456454
H       -1.0699354439    1.6125627626    1.5974076935
H       -0.4324746900    1.3539578125   -0.5833742444
14   
torsion grid (30,)
C       -0.1199855455   -1.1589448235   -1.6008388679
C       -0.1109946078   -0.7272751337   -0.1322469572
C       -0.0488393947    1.1457529966    1.5439165189
C        0.2434620308    0.7439549317    0.0869318087
Cl       0.8865443347    2.5378335503    2.2042021199
Cl       1.9517666195    1.0896910738   -0.4337832871
H        0.8694037822   -1.0453075683   -2.0509585646
H       -0.4165955795   -2.2086796047   -1.6883547031
H       -0.8282489614   -0.5597032005   -2.1837830235
H       -1.1080514593   -0.8882345850    0.3014159685
H        0.5862096817   -1.3449585085    0.4451170987
H        0.1731762004    0.3100208873    2.2100225824
H       -1.1077102140    1.3951401453    1.6322217594
H       -0.3520626515    1.3743404275   -0.5777053753
14   
torsion grid (45,)
C       -0.1318535881   -1.1413153165   -1.6109050409
C       -0.1466598077   -0.7268901256   -0.1369417063
C       -0.0156232692    1.1244575615    1.5555542265
C        0.2617300219    0.7274949328    0.1056453829
Cl       0.6933402639    2.7015613339    2.0701827842
Cl       2.0022876758    0.9972868213   -0.3555894059
H        0.8737325364   -1.0642539592   -2.0319387079
H       -0.4690774861   -2.1767143378   -1.7194777104
H       -0.7980611584   -0.5065245739   -2.2055560728
H       -1.1606900023   -0.8526436974    0.2668670467
H        0.5099561029   -1.3794218305    0.4493353026
H        0.3903918988    0.3758768219    2.2385379473
H       -1.0955544738    1.1941560582    1.7007648135
H       -0.2919032461    1.3932946662   -0.5611114998
14   
torsion grid (60,)
C       -0.1347704181   -1.1295748321   -1.6231075869
C       -0.1964031799   -0.7205070895   -0.1486097199
C        0.0208466716    1.1022609429    1.5722871962
C        0.2607778151    0.7155752267    0.1196078189
Cl       0.4617197374    2.8130572842    1.9486397061
Cl       2.0234795139    0.9143104323   -0.3052114126
H        0.8902066221   -1.0966326300   -2.0005442062
H       -0.5132827595   -2.1483103330   -1.7512938816
H       -0.7456735458   -0.4632187641   -2.2421005906
H       -1.2323774221   -0.8023358572    0.2068547526
H        0.4034040965   -1.4052393124    0.4615614975
H        0.6027333777    0.4699272759    2.2446424139
H       -1.0416467574    0.9955921578    1.8014079160
H       -0.2628295675    1.4132791018   -0.5381576128
14   
torsion grid (75,)
C       -0.1293470767   -1.1247710620   -1.6250061001
C       -0.2313270449   -0.7041120841   -0.1562038203
C        0.0693242890    1.0951903152    1.5850282911
C        0.2806247969    0.7111791082    0.1269566933
Cl       0.1982040281    2.8782855511    1.8611509119
Cl       2.0595422846    0.8278420770   -0.2745843873
H        0.9105689590   -1.1536221210   -1.9590948560
H       -0.5608496841   -2.1205579993   -1.7654752435
H       -0.6736598036   -0.4276779473   -2.2717395998
H       -1.2841974445   -0.7307867960    0.1545044100
H        0.3063733853   -1.4151637717    0.4816580023
H        0.7964760662    0.6078781761    2.2346688734
H       -0.9402820794    0.8153935483    1.8933516097
H       -0.2100253232    1.4336027717   -0.5280989700
14   
torsion grid (90,)
C       -0.1403449085   -1.1104426470   -1.6304249329
C       -0.2630219975   -0.6835677261   -0.1654556213
C        0.1022432656    1.0888974191    1.6021877195
C        0.3083518889    0.7046538663    0.1371734172
Cl      -0.1140820605    2.8736821644    1.8242148082
Cl       2.0987401657    0.7374270493   -0.2442027255
H        0.9056145214   -1.2015866905   -1.9329101198
H       -0.6258916171   -2.0788826110   -1.7850745968
H       -0.6219233542   -0.3826106495   -2.2929206849
H       -1.3244128064   -0.6540634243    0.1145914253
H        0.2172589322   -1.4213269664    0.4881195312
H        0.9402986533    0.7773259314    2.2238141682
H       -0.8159036857    0.6339409105    1.9783747927
H       -0.1389266183    1.4509509628   -0.5206038892
14   
torsion grid (105,)
C       -0.1523144260   -1.0878143363   -1.6229561787
C       -0.2823101629   -0.6561341952   -0.1605799518
C        0.1209348948    1.1160016960    1.6165897059
C        0.3552063292    0.6976991654    0.1573081126
Cl      -0.4423912011    2.8344216287    1.7536975739
Cl       2.1578079632    0.6360819033   -0.1729301383
H        0.8939047770   -1.2298538448   -1.9047836314
H       -0.6812394522   -2.0312447502   -1.7894258887
H       -0.5844240049   -0.3367676150   -2.2936498276
H       -1.3457012140   -0.5664591742    0.0991307405
H        0.1426642710   -1.4189431289    0.5025423831
H        1.0244785341    1.0266223580    2.2160423436
H       -0.6682272810    0.5100105922    2.0639650684
H       -0.0238958860    1.4610711224   -0.5222831960
14   
torsion grid (120,)
C       -0.1842531600   -1.0744338947   -1.6352412922
C       -0.3020195956   -0.6518272219   -0.1696377511
C        0.1627583680    1.1026389236    1.6218770170
C        0.4120865716    0.6542447680    0.1706151203
Cl      -0.7264901681    2.6838641028    1.6888168653
Cl       2.2186155525    0.5013278790   -0.1157321567
H        0.8540573732   -1.2815417475   -1.9065907504
H       -0.7716790073   -1.9790490967   -1.8199645098
H       -0.5579322507   -0.2890395983   -2.3016703708
H       -1.3595676889   -0.4966880903    0.0841722184
H        0.0683472268   -1.4459602079    0.4893514928
H        1.0928075307    1.2528819701    2.1651679821
H       -0.4540483824    0.3796744198    2.1568899043
H        0.1046292304    1.4409052055   -0.5182485373
14   
torsion grid (135,)
C       -0.2085477387   -1.0455767925   -1.6392131429
C       -0.3235036877   -0.6347027775   -0.1700005550
C        0.1791575168    1.1128359515    1.6227771951
C        0.4541348023    0.6256215198    0.1925656714
Cl      -0.9931682563    2.5006965446    1.6136548203
Cl       2.2618773505    0.3723121678   -0.0084628930
H        0.8247860786   -1.2855104919   -1.9036638660
H       -0.8245460333   -1.9274439997   -1.8399343083
H       -0.5491887456   -0.2406548992   -2.2999514604
H       -1.3739627008   -0.4275500981    0.0754783395
H       -0.0004671735   -1.4530207972    0.4840171007
H        1.0813046787    1.4917669038    2.0975914226
H       -0.2559747170    0.3269250723    2.2411563955
H        0.2307325831    1.4266899816   -0.5124633604
14   
torsion grid (150,)
C       -0.2284354565   -1.0391643712   -1.6291338993
C       -0.3510182673   -0.6168006701   -0.1635811856
C        0.2247294645    1.1139136209    1.6250593036
C        0.4906573434    0.5969893813    0.2105570140
Cl      -1.1733779785    2.2758942865    1.6088477163
Cl       2.2854278955    0.2281437370    0.0815994593
H        0.7955980607   -1.3351895214   -1.8724992494
H       -0.8866637171   -1.8876419358   -1.8394466398
H       -0.5131406437   -0.2202407770   -2.2990650250
H       -1.3926041640   -0.3510266125    0.0590909913
H       -0.0861691321   -1.4484321693    0.4996003800
H        1.0730018459    1.6775776969    2.0079330600
H       -0.0246789783    0.3066032016    2.3147098741
H        0.3398244495    1.4079924309   -0.5034998128
14   
torsion grid (165,)
C       -0.2153858566   -1.0258062397   -1.6354763528
C       -0.3869384513   -0.5799614588   -0.1813527080
C        0.2205345656    1.1425491461    1.6151892225
C        0.4825532431    0.6097849868    0.2102459001
Cl      -1.3654345603    2.0312175346    1.6659305012
Cl       2.2602239258    0.1530964388    0.1636901432
H        0.8052650224   -1.3655180274   -1.8312594534
H       -0.8976466843   -1.8500425085   -1.8647700501
H       -0.4383997550   -0.2054286624   -2.3268136333
H       -1.4273955283   -0.2810671468   -0.0080941253
H       -0.1750598437   -1.4098691420    0.5026750848
H        0.9809965877    1.8627997645    1.9119178504
H        0.1672177232    0.3357331900    2.3470769188
H        0.3856326271    1.4206680878   -0.5143528511
14   
torsion grid (180,)
C       -0.2049184085   -1.0155372543   -1.6577461618
C       -0.4212084702   -0.5379941870   -0.2192745206
C        0.2475546503    1.1608954236    1.5976280323
C        0.4830801290    0.6203659910    0.1903019201
Cl      -1.4567444002    1.7624943936    1.8034259492
Cl       2.2366789689    0.0706389874    0.1873901860
H        0.8031376876   -1.4129817201   -1.8020776162
H       -0.9203356282   -1.8051496064   -1.9069487229
H       -0.3513054783   -0.1957579965   -2.3701421183
H       -1.4541836799   -0.1949891178   -0.0998724829
H       -0.2769998907   -1.3644284833    0.4863330448
H        0.9055601220    2.0020654055    1.8112649846
H        0.3943961669    0.3792215447    2.3434115147
H        0.4342609489    1.4314000927   -0.5394338929
