20   
torsion grid (-165,)
C        1.1429482296    0.3749248892    0.6355963169
C        1.2595426244   -0.0327561609    2.1133821087
C       -0.1348139724   -0.4445777967    2.6210019074
C        2.3484893933   -1.1224822887    2.3483481536
C        2.2236240894   -1.7929970018    3.7261969259
C        2.3571068054   -2.2190774953    1.2671865432
H        2.1180194087    0.6280017897    0.2023791930
H        0.7068119073   -0.4283718970    0.0335670323
H        0.4963205805    1.2531854832    0.5303882104
H        1.5678307308    0.8514996241    2.6876379413
H       -0.1574238375   -0.5966764238    3.7035033991
H       -0.8694750805    0.3325992768    2.3825625092
H       -0.4756364237   -1.3714744599    2.1442550938
H        3.3206576564   -0.6129265956    2.3040593783
H        3.0959021687   -2.4256307055    3.9248002276
H        2.1578556578   -1.0562719611    4.5357644222
H        1.3358294134   -2.4308349334    3.7802651839
H        3.1024885324   -2.9845845529    1.5100641863
H        2.6002949475   -1.8268750202    0.2759795572
H        1.3847150931   -2.7216507997    1.2004082640
20   
torsion grid (-150,)
C        1.0136434986    0.2046248092    0.5756204692
C        1.2371886754   -0.0558828176    2.0755443709
C       -0.1373599980   -0.3620376563    2.7029864877
C        2.3172191541   -1.1577537103    2.3639435400
C        2.0646608729   -1.9363455478    3.6668615709
C        2.4626025566   -2.1896845987    1.2278105767
H        1.9461132563    0.4399885659    0.0500847810
H        0.5594624269   -0.6605135858    0.0831399453
H        0.3374189256    1.0556147770    0.4377546743
H        1.5985432626    0.8748521258    2.5314697530
H       -0.0976798275   -0.4358250830    3.7928040046
H       -0.8493394753    0.4323965844    2.4529860358
H       -0.5510940547   -1.3017906980    2.3176227068
H        3.2827465498   -0.6441678951    2.4572172420
H        2.9047044491   -2.6089978319    3.8726178866
H        1.9565050415   -1.2743487072    4.5335497120
H        1.1609155920   -2.5492820275    3.5972888090
H        3.2164097318   -2.9385582503    1.4952144276
H        2.7713593311   -1.7367512828    0.2821715014
H        1.5214581404   -2.7247475604    1.0523944168
20   
torsion grid (-135,)
C        1.1252624289   -0.1085502266    0.3885708531
C        1.2766636021   -0.0728270615    1.9203173894
C       -0.1387724667   -0.0807566135    2.5306946215
C        2.2410579468   -1.1807317922    2.5040115499
C        1.6927563235   -1.9065671021    3.7461734958
C        2.6621674162   -2.2552097613    1.4821235448
H        2.0841053482   -0.0135479740   -0.1306422518
H        0.6508875443   -1.0360170056    0.0517612059
H        0.4930469979    0.7227130785    0.0573561830
H        1.7208674642    0.8968885273    2.1772309882
H       -0.1320390222    0.0445540180    3.6165420946
H       -0.7296455227    0.7406251890    2.1103669887
H       -0.6700277104   -1.0122642429    2.3034343192
H        3.1601499049   -0.6664623179    2.8113666194
H        2.4400073955   -2.6125895777    4.1250484739
H        1.4531556544   -1.2186110792    4.5630565345
H        0.7891865709   -2.4790151283    3.5126485841
H        3.3627348497   -2.9571577342    1.9479016560
H        3.1584443689   -1.8330493004    0.6044568139
H        1.8019596665   -2.8383589508    1.1334624319
20   
torsion grid (-120,)
C        1.1250526813   -0.3002842827    0.3462074005
C        1.3244298493   -0.0706189195    1.8555848363
C       -0.0414828193    0.1820743794    2.5161857294
C        2.2131157799   -1.1613409121    2.5769907097
C        1.5007815404   -1.9241274376    3.7090057043
C        2.8851658968   -2.1692984415    1.6291870429
H        2.0720786154   -0.3622825310   -0.1958558235
H        0.5621110755   -1.2193050404    0.1444393316
H        0.5550990371    0.5307214800   -0.0840857587
H        1.8811018653    0.8718728514    1.9392925903
H        0.0522894094    0.4753965256    3.5659841830
H       -0.5618205494    0.9941896933    1.9963678784
H       -0.6863893109   -0.7023078596    2.4706237984
H        3.0292041816   -0.6095556275    3.0614638776
H        2.2036003246   -2.6105177442    4.1942731041
H        1.1098941321   -1.2567774260    4.4812647879
H        0.6658521720   -2.5267235625    3.3321987953
H        3.5315761857   -2.8441940955    2.2011685787
H        3.5108233176   -1.6794814768    0.8771623747
H        2.1495067066   -2.7876835708    1.1033369127
20   
torsion grid (-105,)
C        0.9995957957   -0.4461342592    0.3690412742
C        1.3214532890   -0.0961436290    1.8326437001
C        0.0510973749    0.3287753738    2.5821773309
C        2.1819527456   -1.1730181928    2.5857400649
C        1.3929390506   -2.0320603967    3.5895818692
C        3.0299885700   -2.0577555130    1.6614793272
H        1.9023148247   -0.6006845157   -0.2266456291
H        0.3870539835   -1.3534155286    0.2907842700
H        0.4326664780    0.3686122517   -0.0953133789
H        1.9585278235    0.7979375530    1.7787831189
H        0.2714999999    0.6622698360    3.6018874065
H       -0.4319141461    1.1628792261    2.0611465809
H       -0.6775137432   -0.4866344098    2.6453920686
H        2.8928067139   -0.5998272167    3.1975274027
H        2.0682468349   -2.7287715754    4.0988930922
H        0.9043668392   -1.4266033756    4.3566276588
H        0.6197507149   -2.6331747151    3.0942707939
H        3.6905919325   -2.6984761075    2.2561082055
H        3.6631181540   -1.4622740095    0.9950334930
H        2.4089667730   -2.7115147618    1.0396354947
20   
torsion grid (-90,)
C        0.8566974720   -0.7186425238    0.3487884121
C        1.2588920871   -0.2182758055    1.7462889090
C        0.0576920538    0.3805606137    2.4893149966
C        2.0482013522   -1.2645408324    2.5908911285
C        1.1557043220   -2.1734799252    3.4525252809
C        3.0441417015   -2.0868085060    1.7629092541
H        1.7265627318   -0.9825247508   -0.2579161411
H        0.2067434359   -1.6012215304    0.4051224258
H        0.3021777546    0.0592278075   -0.1881552480
H        1.9649361395    0.6073541764    1.5736946617
H        0.3396805178    0.7434447622    3.4844293548
H       -0.3519655764    1.2291723307    1.9303211225
H       -0.7482278033   -0.3505234858    2.6145833121
H        2.6436850916   -0.6734261666    3.3021818554
H        1.7696215154   -2.8866889753    4.0140600875
H        0.5672263186   -1.6032916002    4.1756910658
H        0.4582847830   -2.7575680350    2.8385167436
H        3.6937822259   -2.6741916688    2.4212279574
H        3.6864051806   -1.4436127360    1.1503313625
H        2.5344876596   -2.7877698142    1.0931414430
20   
torsion grid (-75,)
C        0.6456641813   -0.7873824736    0.4355706827
C        1.2230326904   -0.2452894665    1.7530701894
C        0.1281674859    0.4272478521    2.5936400868
C        2.0310568471   -1.2952188164    2.5621564916
C        1.1546070394   -2.3356538739    3.2779458209
C        3.1132950735   -1.9815061973    1.7163678598
H        1.4291466579   -1.1388712494   -0.2416336245
H       -0.0462628278   -1.6198923410    0.6103628210
H        0.0857198020   -0.0035337626   -0.0866789869
H        1.9456787632    0.5379342253    1.4807402732
H        0.5200826507    0.7776548714    3.5557897134
H       -0.2861648203    1.2935232358    2.0660448790
H       -0.7016345015   -0.2576005639    2.7992092432
H        2.5498048903   -0.7271235800    3.3482792494
H        1.7800341679   -3.0481808561    3.8273518857
H        0.4734415960   -1.8727329308    3.9974684267
H        0.5514463206   -2.9129804729    2.5671157254
H        3.7908867940   -2.5612357641    2.3529560153
H        3.7159426129   -1.2494065566    1.1659490267
H        2.6781853282   -2.6734332184    0.9871472033
20   
torsion grid (-60,)
C        0.7007206261   -0.5694898968    0.6406959154
C        1.4420458829    0.0036734183    1.8589248771
C        0.4652013315    0.7649344913    2.7685119744
C        2.2650418675   -1.0509329707    2.6438868587
C        1.4194633577   -2.2050509765    3.2052866666
C        3.4356340225   -1.6013070823    1.8144928886
H        1.3763767598   -1.0865771685   -0.0477009495
H       -0.0787318471   -1.2776313982    0.9428802060
H        0.2108126196    0.2336884427    0.0791136889
H        2.1700390042    0.7367938322    1.4829357962
H        0.9762008244    1.1795475170    3.6451776280
H       -0.0012789704    1.5965860345    2.2286181029
H       -0.3420452080    0.1166614068    3.1269145691
H        2.7002954247   -0.5179063657    3.5013507098
H        2.0382922139   -2.8678908875    3.8202451488
H        0.5977024469   -1.8469815007    3.8332006615
H        0.9891485192   -2.8137174123    2.4023668942
H        4.0848544528   -2.2340538490    2.4300233874
H        4.0495165091   -0.7915312911    1.4034230371
H        3.0845742735   -2.2138026238    0.9766602996
20   
torsion grid (-45,)
C        0.5721195531   -0.6620103657    0.7072689857
C        1.4280605391   -0.0357387243    1.8195867338
C        0.5516980969    0.8534249184    2.7167439042
C        2.2169041616   -1.0791187383    2.6575133864
C        1.3767783203   -2.2989159670    3.0678749782
C        3.4860811411   -1.5407380613    1.9229279660
H        1.1535080612   -1.3364931033    0.0691762524
H       -0.2659319814   -1.2319886720    1.1217389887
H        0.1515112213    0.1182827790    0.0634028881
H        2.1723598450    0.6160164047    1.3421134994
H        1.1533573803    1.3760418709    3.4689460441
H        0.0218574280    1.6097079653    2.1264289314
H       -0.2050622224    0.2625464734    3.2462018518
H        2.5389208833   -0.5702982240    3.5762909075
H        1.9347808819   -2.9289072799    3.7693561512
H        0.4411615562   -2.0095804551    3.5587999238
H        1.1230665027   -2.9184241090    2.2013669937
H        4.0574780642   -2.2518077921    2.5304265464
H        4.1423864339   -0.6942205629    1.6914064618
H        3.2404678607   -2.0407873479    0.9785910607
20   
torsion grid (-30,)
C        0.3073293406   -0.7674107471    0.7876983133
C        1.3096445345   -0.1538868136    1.7778918308
C        0.5717856422    0.8209957867    2.7115597215
C        2.1109551429   -1.2051086032    2.6063350467
C        1.3476276065   -2.5133772524    2.8657420150
C        3.4512627189   -1.5242440256    1.9220168690
H        0.7815049342   -1.4904709929    0.1143474228
H       -0.5090288174   -1.2786036648    1.3075578435
H       -0.1377751058    0.0165109229    0.1649523196
H        2.0364364512    0.4309519444    1.1997270306
H        1.2717138420    1.3552466105    3.3638813122
H        0.0047864061    1.5675765994    2.1435318416
H       -0.1386605634    0.2850936490    3.3533688279
H        2.3383400873   -0.7513450787    3.5794393078
H        1.9205904311   -3.1585095161    3.5410058873
H        0.3714823342   -2.3368808840    3.3316306236
H        1.1809466143   -3.0715811635    1.9391173646
H        4.0271365206   -2.2612075100    2.4936630060
H        4.0683599703   -0.6250411326    1.8149098643
H        3.2889721441   -1.9381493846    0.9189271439
20   
torsion grid (-15,)
C        0.0392948836   -0.9371936009    0.8002652334
C        1.1525760678   -0.3464721719    1.6797261778
C        0.5733833084    0.7753326168    2.5578329076
C        1.9222655851   -1.3888857839    2.5613903397
C        1.2356801651   -2.7572080059    2.6959011250
C        3.3548219711   -1.5818564074    2.0364847788
H        0.4101649744   -1.7275158486    0.1389794704
H       -0.7733149845   -1.3571756930    1.4019566056
H       -0.3918378504   -0.1551646294    0.1652386997
H        1.8847865435    0.1145379187    1.0048638943
H        1.3600069004    1.2765297827    3.1333369274
H        0.0628041971    1.5347330011    1.9542330554
H       -0.1559741441    0.3725498238    3.2719588290
H        2.0004693407   -0.9678080775    3.5716771081
H        1.8002867432   -3.3939696729    3.3861601522
H        0.2170667910   -2.6719188931    3.0891002144
H        1.1818131697   -3.2803167597    1.7355846673
H        3.9215597278   -2.2801327544    2.6633270428
H        3.9012542255   -0.6321051612    2.0127253119
H        3.3437822398   -1.9849479613    1.0159126604
20   
torsion grid (0,)
C       -0.0204071263   -0.7307973567    1.0808096091
C        1.2387290760   -0.1990849613    1.7827467215
C        0.8826881493    0.9778103451    2.7031579331
C        2.0816215102   -1.2690480036    2.5599895652
C        1.5339824996   -2.7039147342    2.5140911845
C        3.5462291898   -1.2393272328    2.0984208706
H        0.2083777435   -1.5408668718    0.3818455644
H       -0.7605184825   -1.1046305601    1.7974721927
H       -0.4973691223    0.0731444928    0.5088417426
H        1.8844180753    0.1985205735    0.9881758680
H        1.7793383818    1.4026983641    3.1690189601
H        0.3787116521    1.7802580848    2.1521231856
H        0.2118616962    0.6523522085    3.5081086561
H        2.0722420830   -0.9740644066    3.6179328514
H        2.1479078089   -3.3587794044    3.1427488495
H        0.5053467899   -2.7644406259    2.8819920735
H        1.5522218340   -3.1158008472    1.4986412890
H        4.1702112603   -1.9111553447    2.6991265941
H        3.9669966101   -0.2302760671    2.1778470651
H        3.6297159891   -1.5531570527    1.0503666629
20   
torsion grid (15,)
C       -0.0778973390   -0.6626070691    1.2513922353
C        1.2696548922   -0.1680502993    1.7978129047
C        1.0811881033    1.0915852061    2.6552020259
C        2.1109165374   -1.2345360274    2.5698497566
C        1.6656121663   -2.6914097213    2.3741923990
C        3.6045070782   -1.0736123901    2.2526618217
H        0.0402220944   -1.5123369415    0.5733074204
H       -0.7569331370   -0.9669615417    2.0572697652
H       -0.5737925484    0.1400729110    0.6938059905
H        1.8621821379    0.1235719936    0.9184448764
H        2.0387987228    1.4628672721    3.0373360981
H        0.6144255747    1.9003796110    2.0815805821
H        0.4383362076    0.8793409077    3.5185027174
H        1.9818497349   -1.0217058812    3.6410477881
H        2.2862846732   -3.3582758542    2.9834253798
H        0.6243905565   -2.8464280256    2.6701973315
H        1.7701666195   -3.0123485891    1.3305322719
H        4.2207931339   -1.7196585937    2.8881719099
H        3.9371132436   -0.0405609162    2.4045591219
H        3.8088757361   -1.3386338051    1.2078692695
20   
torsion grid (30,)
C       -0.0195573300   -0.5077177838    1.4429049614
C        1.3932715384   -0.0490706503    1.8347281326
C        1.3245636881    1.2802847368    2.6021068987
C        2.2151451777   -1.1055168279    2.6272411764
C        1.8672194480   -2.5633818249    2.2902760660
C        3.7234280323   -0.8679513512    2.4557123627
H       -0.0029816202   -1.3830431616    0.7880777369
H       -0.6188663635   -0.7593349746    2.3270654763
H       -0.5434873426    0.2941716402    0.9105170807
H        1.9349579841    0.1364145913    0.8948660652
H        2.3173297154    1.6391070353    2.8921605925
H        0.8534068538    2.0628432406    1.9969688466
H        0.7314446056    1.1653612653    3.5178669574
H        1.9744388045   -0.9633969632    3.6916809556
H        2.5002626206   -3.2465084738    2.8678230767
H        0.8258691920   -2.8034849772    2.5209450285
H        2.0359561168   -2.7804212101    1.2278993778
H        4.3050711636   -1.5302483354    3.1065830170
H        4.0068444496    0.1623017589    2.6938774888
H        4.0286358059   -1.0664104348    1.4207841742
20   
torsion grid (45,)
C       -0.1750222561   -0.6468681116    1.3800801473
C        1.2791082288   -0.2574967521    1.6907661365
C        1.3213293486    1.1721948186    2.2540644024
C        1.9892291581   -1.2672496337    2.6304374585
C        1.7400418457   -2.7318458224    2.2361072720
C        3.5017537117   -1.0046884480    2.7106673903
H       -0.2441975347   -1.5879824438    0.8282896243
H       -0.7603730800   -0.7534246597    2.3025073909
H       -0.6575994528    0.1270003018    0.7728115385
H        1.8306451801   -0.2610334419    0.7380391926
H        2.3426404183    1.5292091412    2.4130360397
H        0.8319899663    1.8743871302    1.5700774724
H        0.7941518160    1.2249120160    3.2149974037
H        1.5678625537   -1.1220279308    3.6370437182
H        2.3146222822   -3.4055712247    2.8814593550
H        0.6870616029   -3.0121341872    2.3234287480
H        2.0541477450   -2.9205267220    1.2014099924
H        3.9841695041   -1.7144125949    3.3917924776
H        3.7331416664    0.0017914219    3.0702017992
H        3.9677649705   -1.1239854595    1.7244176930
20   
torsion grid (60,)
C       -0.2800455755   -0.6254889095    1.5332048674
C        1.2200830726   -0.3163573399    1.6742631077
C        1.3959498746    1.1367434271    2.1467382423
C        1.9379664366   -1.3284351286    2.6012948544
C        1.8294673605   -2.7702023236    2.0765283268
C        3.4200116027   -0.9769880651    2.8150453591
H       -0.4648177108   -1.6029587208    1.0794565777
H       -0.7731843094   -0.6111481874    2.5134272917
H       -0.7722600861    0.1248500934    0.9048442077
H        1.6790434379   -0.4029934191    0.6776577040
H        2.4392056493    1.4622090012    2.1144087229
H        0.8197162248    1.8203768879    1.5136915320
H        1.0373592283    1.2588564879    3.1768199463
H        1.4383923167   -1.2860022278    3.5810896812
H        2.3763504282   -3.4610360898    2.7275174269
H        0.7948121698   -3.1200079979    2.0255439944
H        2.2616503086   -2.8508905120    1.0710765460
H        3.9163146983   -1.7476201016    3.4150086555
H        3.5517172763   -0.0235708901    3.3337015344
H        3.9489590299   -0.9136775274    1.8554766298
20   
torsion grid (75,)
C       -0.3645796068   -0.5986056477    1.6750080026
C        1.1580027992   -0.3802002266    1.6495657719
C        1.4540651449    1.0869825295    2.0034791066
C        1.8796836574   -1.3955996301    2.5761695394
C        1.9169131509   -2.7939247524    1.9359319327
C        3.3149179537   -0.9783526789    2.9388573605
H       -0.6433761485   -1.6261394375    1.4215419360
H       -0.7642119599   -0.3811792157    2.6730769769
H       -0.8696065502    0.0643427169    0.9637784706
H        1.5170632713   -0.5547971632    0.6249067258
H        2.5082698942    1.3439144123    1.8685880020
H        0.8670422242    1.7588004181    1.3672676081
H        1.1853677969    1.3023840485    3.0453112486
H        1.3040769551   -1.4566970478    3.5111991736
H        2.3558716628   -3.5287782460    2.6198206298
H        0.9205824110   -3.1542993205    1.6616114978
H        2.5288815678   -2.7802398828    1.0257524311
H        3.8008231669   -1.7602281724    3.5332194633
H        3.3456062693   -0.0544296368    3.5227937186
H        3.9206056002   -0.8269611928    2.0365088215
20   
torsion grid (90,)
C       -0.5014409184   -0.6382461659    1.8433275425
C        1.0143809238   -0.5045843017    1.6201775251
C        1.4215425829    0.9593175531    1.8564932489
C        1.7761173545   -1.5402609862    2.5032474497
C        1.9600676038   -2.8562370101    1.7288144613
C        3.1502200601   -1.0653952853    3.0042250932
H       -0.8436847875   -1.6706936249    1.7084296167
H       -0.7645006532   -0.3311485049    2.8626141348
H       -1.0663738861   -0.0075167085    1.1476452264
H        1.2330363128   -0.7381301124    0.5692927944
H        2.4772411293    1.1400312823    1.6351651670
H        0.8311980985    1.6230314848    1.2145442016
H        1.2388534659    1.2611807264    2.8948929837
H        1.1580382781   -1.7414565786    3.3888043162
H        2.3837543195   -3.6407021522    2.3660324251
H        1.0104387627   -3.2298919054    1.3289855739
H        2.6417125541   -2.7077372344    0.8827869661
H        3.6271044753   -1.8526031086    3.5992094988
H        3.0799081097   -0.1735931397    3.6334215608
H        3.8215997551   -0.8353546199    2.1681023125
20   
torsion grid (105,)
C       -0.5538404182   -0.5922574467    2.0193160395
C        0.9297824186   -0.5636140228    1.6183635845
C        1.4527179201    0.8795029812    1.7054241046
C        1.7337213378   -1.6194541559    2.4524957472
C        2.0723153350   -2.8370860016    1.5775973738
C        3.0186818662   -1.0948176564    3.1137530073
H       -0.9702182231   -1.6034830126    1.9413872083
H       -0.6778572871   -0.2604889959    3.0574343530
H       -1.1554315714    0.0670092650    1.3829793931
H        0.9965977777   -0.8596483408    0.5633357042
H        2.4971312832    0.9633869119    1.3906390199
H        0.8593020394    1.5320313482    1.0549572014
H        1.3757495350    1.2768862767    2.7238994349
H        1.0793922030   -1.9628830024    3.2643421965
H        2.5487609716   -3.6325635253    2.1621347393
H        1.1735141784   -3.2573308764    1.1111520799
H        2.7623632257   -2.5527740310    0.7737686089
H        3.4827008701   -1.8881843777    3.7106604574
H        2.8277698062   -0.2497321203    3.7818162447
H        3.7553442506   -0.7741756556    2.3683357739
20   
torsion grid (120,)
C        1.5277399881    0.7245100553    0.9281939504
C        1.0495772017   -0.2589921783    2.0072082055
C       -0.3527397950   -0.7906490740    1.6751852673
C        2.1338878847   -1.3583991218    2.2788006969
C        2.5912472303   -1.3235721056    3.7450195281
C        1.7379861277   -2.7841297453    1.8665564516
H        2.4866495085    1.1777022684    1.2039106509
H        1.6649642333    0.2145632691   -0.0339334543
H        0.8045566522    1.5340162549    0.7751401646
H        0.9463340537    0.3192746490    2.9349620558
H       -0.7305747493   -1.4628122075    2.4524356353
H       -1.0594910825    0.0423794023    1.5895695243
H       -0.3699137011   -1.3343054951    0.7244188790
H        3.0097392354   -1.0956708227    1.6708227531
H        3.3947543441   -2.0456448148    3.9313184872
H        2.9618960357   -0.3295209078    4.0195957195
H        1.7613084662   -1.5676551509    4.4204383342
H        2.5844360064   -3.4650942926    2.0099923786
H        1.4471112615   -2.8398672619    0.8125328083
H        0.9042317410   -3.1667211146    2.4651310256
20   
torsion grid (135,)
C        1.6123882726    0.6973677959    0.8046563932
C        1.1771925718   -0.1364159735    2.0187579357
C       -0.2564416955   -0.6614078835    1.8591360397
C        2.2319110987   -1.2353659455    2.3606407105
C        2.5099700625   -1.2927622991    3.8699525465
C        1.9074678550   -2.6240632023    1.7926097931
H        2.5840368489    1.1712818798    0.9816113283
H        1.7044907344    0.0735195618   -0.0938274855
H        0.8863242907    1.4882929136    0.5835267886
H        1.1612598023    0.5533440758    2.8737846301
H       -0.5735206561   -1.2442144933    2.7310155878
H       -0.9572231005    0.1735528272    1.7484840010
H       -0.3611954968   -1.2986766761    0.9745345868
H        3.1720300680   -0.9191377715    1.8881269090
H        3.2728263515   -2.0436384278    4.1063107798
H        2.8631431723   -0.3245907358    4.2413301289
H        1.6039696305   -1.5548520084    4.4315709029
H        2.7460033564   -3.3090769091    1.9602770520
H        1.7232169489   -2.5869603333    0.7132342683
H        1.0237021716   -3.0628100440    2.2680717693
20   
torsion grid (150,)
C        1.4838438141    0.6725244589    0.7742056992
C        1.2103661190   -0.0928711467    2.0775027563
C       -0.2291721178   -0.6259548295    2.1193345035
C        2.2877737301   -1.1819872370    2.3387461952
C        2.4957576163   -1.4232981127    3.8413158414
C        2.0275399873   -2.4991537972    1.5933945263
H        2.4729073201    1.1432826609    0.7932528427
H        1.4475420520    0.0069543802   -0.0970838709
H        0.7389168639    1.4605577482    0.6149776076
H        1.3061957151    0.6365948842    2.8940359069
H       -0.4267351076   -1.1931852256    3.0355413223
H       -0.9460397044    0.2017372325    2.0825811319
H       -0.4406308811   -1.2814840153    1.2676509612
H        3.2341560231   -0.7769760607    1.9535749935
H        3.2805510166   -2.1679356535    4.0170443618
H        2.7878932891   -0.4994345097    4.3525452916
H        1.5801769880   -1.7938790279    4.3186300327
H        2.8877628639   -3.1707995315    1.6894815326
H        1.8551855494   -2.3345892894    0.5240822067
H        1.1546042874   -3.0240186891    1.9962571557
20   
torsion grid (165,)
C        1.3999186820    0.4877846517    0.6421043426
C        1.1964570203   -0.1187809481    2.0390971162
C       -0.2549095051   -0.5938606276    2.2110359568
C        2.2524439919   -1.2096758006    2.3567720625
C        2.2913410542   -1.5524262552    3.8540750642
C        2.0933010107   -2.4876809898    1.5182586819
H        2.4259981354    0.8498895641    0.5103022774
H        1.1985719946   -0.2430315870   -0.1491594093
H        0.7229031921    1.3345324944    0.4824505218
H        1.3647958855    0.6879769051    2.7667446135
H       -0.4352996327   -1.0167258151    3.2044350916
H       -0.9494985064    0.2430897945    2.0787960937
H       -0.5172632524   -1.3555290250    1.4686042271
H        3.2280525952   -0.7712146728    2.1025936558
H        3.1199685785   -2.2341399808    4.0764802401
H        2.4244921750   -0.6526756307    4.4656717084
H        1.3685402776   -2.0452759088    4.1800646614
H        2.9251635899   -3.1752052278    1.7073151065
H        2.0788587931   -2.2768968103    0.4442201311
H        1.1683721743   -3.0184026024    1.7692852317
20   
torsion grid (180,)
C        1.2159939484    0.3534550161    0.5952247586
C        1.1624239177   -0.1492324461    2.0465104734
C       -0.2706364436   -0.5850247591    2.3951553903
C        2.2320568555   -1.2384608187    2.3268347587
C        2.1785609617   -1.7410686574    3.7781507922
C        2.1685278517   -2.4317492068    1.3587658779
H        2.2379234884    0.6170685363    0.2976226537
H        0.8476581844   -0.4031080581   -0.1056754462
H        0.5916212200    1.2452311711    0.4709643286
H        1.4127484571    0.6989258264    2.6995693233
H       -0.3805205972   -0.8361134843    3.4541417521
H       -0.9779819509    0.2219818017    2.1737877361
H       -0.5791383182   -1.4576951154    1.8082794764
H        3.2073192702   -0.7525325974    2.1810342722
H        3.0532704861   -2.3603460014    4.0060225624
H        2.1630867904   -0.9091261855    4.4923155885
H        1.2889631491   -2.3538039250    3.9584041072
H        2.9433399822   -3.1653163605    1.6080575736
H        2.3251848148   -2.1297472059    0.3191382420
H        1.2026634589   -2.9462631733    1.4181938042
