19   
torsion grid (-165,)
C        1.3434463788    2.0451228878   -0.7891303685
C       -0.1561875092   -0.3977920307    1.3530820107
C       -2.4960248074   -0.7728978999   -1.2210180105
C        1.6264778884    0.5434304125   -0.7357337649
N        0.4215038052   -0.2512175125   -1.0181317997
N       -0.6184556824   -0.0979592239   -0.0097703468
O       -1.5044167694   -1.1996123332   -0.2830665635
H        2.2712603440    2.6129201699   -0.6628348993
H        0.8964757431    2.3106374641   -1.7517934570
H        0.6459743760    2.3480040814   -0.0029181701
H       -1.0321605517   -0.4060708477    2.0038380993
H        0.3537826863   -1.3722435284    1.4169830992
H        0.5187197670    0.3926168448    1.6869045506
H       -3.1161600188   -1.6526682203   -1.4122119957
H       -2.0294760345   -0.4354807509   -2.1522280572
H       -3.1064236805    0.0331244483   -0.7980563110
H        2.3363611947    0.2758093627   -1.5261827612
H        2.1066892363    0.2839365694    0.2203763297
H        0.6904228941   -1.2430780428   -0.9876629740
19   
torsion grid (-150,)
C        2.9189683021   -1.5759793745   -1.5844148411
C       -0.5692912558   -1.1170915276    1.2247365246
C       -0.6286301341    2.0750036285    0.0794147798
C        1.4503620874   -1.3280836278   -1.2445730814
N        1.3568545823   -0.5245590373   -0.0154071329
N       -0.0558651639   -0.1780757912    0.2212868916
O       -0.0057613955    1.0913907029    0.9055005354
H        3.4300788585   -2.0763369037   -0.7565427659
H        3.0043388844   -2.2032376421   -2.4774271423
H        3.4440275020   -0.6348406763   -1.7877495611
H       -1.6106473852   -0.8603730038    1.4346035224
H       -0.5311277684   -2.1233413119    0.7987230530
H        0.0274875750   -1.0871783460    2.1442088087
H       -0.5474202961    3.0162687547    0.6302095058
H       -1.6839260583    1.8355834138   -0.0950334247
H       -0.1175314702    2.1695718668   -0.8871712743
H        0.9283538217   -0.8488979924   -2.0877730414
H        0.9513505901   -2.2860808353   -1.0624343486
H        1.8006298492    0.3784046824   -0.1831000315
19   
torsion grid (-135,)
C        2.8846290912   -1.5150099462   -1.6159780987
C       -0.5646702475   -1.1307039029    1.3854161346
C       -0.5771175865    1.9860774926   -0.0630319331
C        1.4194482273   -1.2112497784   -1.3084898926
N        1.3064298691   -0.6248538462    0.0338981184
N       -0.0883985192   -0.2676738253    0.2995785332
O       -0.0560653872    1.0527637342    0.8837682832
H        3.3083187436   -2.1854053257   -0.8621036762
H        2.9793114961   -1.9897394688   -2.5977985563
H        3.4865452003   -0.5982717424   -1.6304801043
H       -1.6054699343   -0.8751304497    1.6006327969
H       -0.5115377828   -2.1644990547    1.0343972315
H        0.0504214210   -1.0233463458    2.2876100208
H       -0.5299406417    2.9624571030    0.4272466350
H       -1.6143528110    1.7457368110   -0.3215694209
H        0.0268928800    2.0081003493   -0.9792681653
H        0.9860094885   -0.5595985187   -2.0840992142
H        0.8405126250   -2.1408306102   -1.3151579804
H        1.8212849935    0.2533243038    0.0824862643
19   
torsion grid (-120,)
C        2.8558297168   -1.4650238607   -1.6389027755
C       -0.5526369546   -1.1218244794    1.5237541753
C       -0.5481398286    1.8903649918   -0.1891852353
C        1.4016265972   -1.0881464503   -1.3618518390
N        1.2452453560   -0.7262731029    0.0515145012
N       -0.1136761527   -0.3520811225    0.3542201869
O       -0.0895629054    1.0155830105    0.8412017071
H        3.1742231293   -2.2850474308   -0.9879365914
H        2.9781555284   -1.7785329909   -2.6805383337
H        3.5276253500   -0.6153513588   -1.4667123237
H       -1.5790232449   -0.8336226201    1.7643289732
H       -0.5224927386   -2.1792734805    1.2521661269
H        0.0986336581   -0.9530552891    2.3917198211
H       -0.5471426248    2.8922964650    0.2493520312
H       -1.5611190085    1.6216779168   -0.5087607295
H        0.1214841281    1.8750204518   -1.0586029476
H        1.0798262830   -0.2837156707   -2.0432874669
H        0.7503089595   -1.9461388877   -1.5536894470
H        1.8430858770    0.0552908877    0.3182671427
19   
torsion grid (-105,)
C        2.8896277126   -1.5178114952   -1.6372464519
C       -0.5280155606   -1.0548403953    1.5584816447
C       -0.6876904717    1.8252951282   -0.2248992485
C        1.4862462086   -0.9636785368   -1.3987672654
N        1.2456753558   -0.8257773907    0.0416875860
N       -0.0676752793   -0.3825408098    0.3372372926
O        0.0054110073    1.0265879174    0.7321978979
H        3.0182701241   -2.4779654035   -1.1280972875
H        3.0665693494   -1.6632914585   -2.7077027062
H        3.6584929604   -0.8303862839   -1.2646076939
H       -1.5283788156   -0.6881440749    1.8011557645
H       -0.5680914767   -2.1264413971    1.3527056871
H        0.1459882279   -0.8719425844    2.4070540440
H       -0.6267999651    2.8532818676    0.1448431404
H       -1.7392947141    1.5246140810   -0.3036313724
H       -0.2211390452    1.7646149493   -1.2154646767
H        1.3622663145   -0.0129317736   -1.9424238122
H        0.7335518795   -1.6565015456   -1.7847660409
H        1.9172373135   -0.1999938150    0.4893004743
19   
torsion grid (-90,)
C        2.9195767444   -1.5353346036   -1.6463238820
C       -0.5207163120   -0.9701478141    1.5766128047
C       -0.7826613455    1.7594221518   -0.2447344303
C        1.5562783258   -0.8918834193   -1.4012207421
N        1.2259532112   -0.9489429805    0.0267563779
N       -0.0417322965   -0.4183159628    0.3046233494
O        0.1189146306    1.0251869562    0.5780156667
H        2.9282269588   -2.5718687032   -1.2952376251
H        3.1595063241   -1.5268019125   -2.7142852105
H        3.7165306175   -0.9926397936   -1.1239597179
H       -1.4797059862   -0.5057897599    1.8182492454
H       -0.6565597427   -2.0457084313    1.4454312874
H        0.1866384546   -0.7867612344    2.3984744247
H       -0.6105680793    2.8143111913   -0.0102756692
H       -1.8274385411    1.5055867805   -0.0220539584
H       -0.5910454035    1.5806906203   -1.3094149292
H        1.5555263574    0.1409648017   -1.7840659849
H        0.7725712264   -1.4394019397   -1.9319646697
H        1.9329559812   -0.4704189676    0.5924306393
19   
torsion grid (-75,)
C        2.9104842782   -1.5048106556   -1.6581790633
C       -0.5009709989   -0.9251055552    1.6323559147
C       -0.8000880420    1.6860032323   -0.3178378238
C        1.5789742566   -0.8124609210   -1.3757956976
N        1.1672033819   -1.0652382782    0.0099251738
N       -0.0608388576   -0.4692780169    0.3123159995
O        0.1582761474    0.9898710412    0.4710871176
H        2.8353992283   -2.5816976088   -1.4786786579
H        3.2096901159   -1.3452547555   -2.6989086780
H        3.7095442899   -1.1080497592   -1.0204730323
H       -1.4280569703   -0.4076456276    1.8879014597
H       -0.6852459360   -1.9998724323    1.5732510029
H        0.2492044040   -0.7211267314    2.4116440175
H       -0.5829840478    2.7499291348   -0.1825563717
H       -1.8255096500    1.4820859969    0.0186866099
H       -0.7149502379    1.4218809268   -1.3787705641
H        1.6623520300    0.2646465680   -1.5819061503
H        0.7925920518   -1.2143225127   -2.0217445486
H        1.8871756817   -0.7174070664    0.6547402679
19   
torsion grid (-60,)
C        2.8805616545   -1.4831571346   -1.6683561402
C       -0.4574943437   -0.8901174319    1.6988501696
C       -0.8171975285    1.6137377812   -0.4123951114
C        1.6020715824   -0.7191433188   -1.3310426735
N        1.0973318686   -1.1515174453   -0.0206552821
N       -0.0919698478   -0.4994703437    0.3396147147
O        0.1515338416    0.9620453032    0.4005381078
H        2.7002044040   -2.5622634195   -1.6789427405
H        3.2542006573   -1.1826098708   -2.6523605847
H        3.6724223127   -1.2772448680   -0.9380837413
H       -1.3590100857   -0.3463070563    1.9867863723
H       -0.6608757483   -1.9632473413    1.6983952189
H        0.3417549418   -0.6653342799    2.4234158635
H       -0.5912797607    2.6823235247   -0.3457296095
H       -1.8370288977    1.4359720847   -0.0463252122
H       -0.7525951951    1.2856051267   -1.4569050274
H        1.7861315993    0.3625958225   -1.3528054654
H        0.8216243970   -0.9390693632   -2.0672158221
H        1.8218652737   -0.9406507905    0.6802739398
19   
torsion grid (-45,)
C        2.1265276834    0.2771072620   -1.6777861028
C       -0.3132538526   -1.6611317106   -0.1356795649
C       -2.4130767697    0.9945662838    0.7157766284
C        0.9294111323    0.9816296172   -1.0339120453
N        0.6304616657    0.4644730035    0.3232751528
N       -0.4972272098   -0.3555433476    0.5011525344
O       -1.6802976572    0.1953398337   -0.2015524470
H        2.3479805799    0.7145414048   -2.6584849326
H        3.0158869304    0.3734142788   -1.0470233270
H        1.9327636843   -0.7898424057   -1.8199958527
H       -1.1763445503   -2.2820891820    0.1114002199
H       -0.2294829966   -1.5950498097   -1.2289145876
H        0.5945424558   -2.1054119852    0.2765481235
H       -3.2887754692    1.3560893742    0.1690501632
H       -1.8302861716    1.8623933010    1.0587027585
H       -2.7315155002    0.4098318410    1.5871126204
H        1.1486036217    2.0512168546   -0.9387722548
H        0.0382585767    0.9038455724   -1.6646192675
H        0.5476331071    1.2212016641    0.9941667912
19   
torsion grid (-30,)
C        1.6243588535    0.2742756738   -1.8686251524
C       -0.0754965675   -1.7294405943    0.1539462755
C       -2.3542112034    0.9086192605    0.3474091119
C        1.0339401617    1.1828992607   -0.7902248553
N        0.7289833080    0.5024781625    0.4861566826
N       -0.3937659173   -0.3596423094    0.5624825476
O       -1.4588650205    0.0534737695   -0.3517010277
H        2.0363718576    0.8842683708   -2.6802512095
H        2.4286436936   -0.3449940167   -1.4592851579
H        0.8656594268   -0.3801771072   -2.3040762406
H       -0.9353061948   -2.3587756214    0.3957397521
H        0.1461907657   -1.8291213119   -0.9145196748
H        0.7888335389   -2.0511477477    0.7371891537
H       -3.1481554958    1.1578181450   -0.3623284300
H       -1.8618034802    1.8376587115    0.6693262998
H       -2.7782354322    0.4046942075    1.2239938979
H        1.7733101393    1.9457188910   -0.5201731265
H        0.1551029674    1.7041699200   -1.1917697560
H        0.5762538592    1.2138061861    1.1971555197
19   
torsion grid (-15,)
C        1.4450158732    0.3672341206   -1.9260666175
C       -0.0620194222   -1.7715357266    0.2891279638
C       -2.2908225698    0.8879567140    0.1802003291
C        1.0589168401    1.2100266010   -0.7115490486
N        0.8346222784    0.4205319737    0.5166395452
N       -0.3641430099   -0.3707483727    0.6038204085
O       -1.3319052585    0.0161800175   -0.4096726532
H        1.7549705638    1.0198167846   -2.7500558267
H        2.2762441046   -0.3028363465   -1.6846403523
H        0.5999757885   -0.2311682758   -2.2744898388
H       -0.9748857632   -2.3551119130    0.4309062872
H        0.3037811565   -1.9136279784   -0.7349412272
H        0.7009525089   -2.1071378787    0.9936572620
H       -3.0046660828    1.1279748363   -0.6129602119
H       -1.8264916117    1.8169849819    0.5388063301
H       -2.8063508094    0.3989566165    1.0149675309
H        1.8877694916    1.8800329446   -0.4544940767
H        0.1952395735    1.8389373578   -0.9642339980
H        0.7556056084    1.0841153936    1.2854228043
19   
torsion grid (0,)
C        1.3701182087    0.4768466483   -1.9857931422
C       -0.1072454626   -1.7978553402    0.4251548443
C       -2.2616418983    0.8521685592    0.0724542929
C        1.0829216937    1.2249526855   -0.6843265935
N        0.9348205348    0.3279763060    0.4782287975
N       -0.3452764666   -0.3631071446    0.6290875954
O       -1.2508785027   -0.0119759619   -0.4415468902
H        1.5877970100    1.1874975911   -2.7914188932
H        2.2342166029   -0.1841164956   -1.8638343456
H        0.5092724319   -0.1239387224   -2.2878367914
H       -1.0530169451   -2.3266901510    0.5690046048
H        0.2908155684   -2.0161522906   -0.5741634477
H        0.6139836357   -2.1239517193    1.1770547136
H       -2.9237353281    1.0689109666   -0.7708466160
H       -1.8359396524    1.7904249021    0.4511722193
H       -2.8248290668    0.3634960311    0.8759744268
H        1.9420449346    1.8573837031   -0.4310898318
H        0.2192784588    1.8889723953   -0.8199409012
H        0.9691035032    0.9257398878    1.3031105682
19   
torsion grid (15,)
C        1.3212883340    0.6123186525   -2.0497149549
C       -0.1724681778   -1.8135272014    0.5773905545
C       -2.2406988032    0.7996530518   -0.0287977088
C        1.1191393963    1.2317270836   -0.6668104411
N        1.0182238313    0.2212038326    0.4033855740
N       -0.3259575041   -0.3548245354    0.6340212489
O       -1.1875973820   -0.0513250787   -0.4782237797
H        1.4925257217    1.3961535503   -2.7969061507
H        2.1893166223   -0.0546955949   -2.0417312610
H        0.4428331092    0.0374789032   -2.3500511855
H       -1.1475179075   -2.2703754361    0.7679288487
H        0.2159612083   -2.1458493040   -0.3938784774
H        0.5276137394   -2.1076634934    1.3627067091
H       -2.8661964830    0.9828157646   -0.9072969738
H       -1.8535145656    1.7524988975    0.3523398631
H       -2.8318614730    0.3129658973    0.7558048201
H        2.0050325531    1.8221691525   -0.4040568382
H        0.2662311513    1.9232790811   -0.6820456076
H        1.1794558894    0.7225786271    1.2763803704
19   
torsion grid (30,)
C        1.2773244472    0.7555901792   -2.1034044545
C       -0.2394503196   -1.8067057196    0.7374292720
C       -2.2199182255    0.7385501956   -0.1331917656
C        1.1618913293    1.2237246214   -0.6526603186
N        1.0789308395    0.1034940941    0.3048491997
N       -0.3035450569   -0.3455249418    0.6246087432
O       -1.1362466639   -0.1037374835   -0.5212478800
H        1.4245143066    1.6144301207   -2.7691559201
H        2.1327259574    0.0814180262   -2.2137314844
H        0.3757938114    0.2248126252   -2.4142027107
H       -1.2386835218   -2.1772486522    0.9826818260
H        0.1221668994   -2.2681263036   -0.1897965907
H        0.4454508373   -2.0534367549    1.5531731369
H       -2.8176789671    0.8808222487   -1.0381513882
H       -1.8640058860    1.7086277277    0.2329304497
H       -2.8310553457    0.2640445580    0.6439839710
H        2.0780362904    1.7609647343   -0.3792428570
H        0.3330160118    1.9360508455   -0.5409702854
H        1.3725425161    0.4788317296    1.2065436668
19   
torsion grid (45,)
C        1.2285695974    0.9055270382   -2.1350039302
C       -0.2905654308   -1.7761169840    0.8887033690
C       -2.2010788322    0.6651328219   -0.2387090157
C        1.2074641901    1.2039885393   -0.6356051462
N        1.1137253478   -0.0169243019    0.1907385322
N       -0.2757835410   -0.3375497905    0.6023457533
O       -1.0984702634   -0.1766297431   -0.5672259544
H        1.3833574518    1.8309323229   -2.7027544075
H        2.0458750692    0.2158802966   -2.3688298958
H        0.2913881228    0.4484163790   -2.4560028774
H       -1.3054294054   -2.0569198305    1.1827406055
H        0.0339983210   -2.3622318081    0.0207336672
H        0.3849769426   -1.9649645196    1.7286309804
H       -2.7877889090    0.7476020965   -1.1581076811
H       -1.8667497304    1.6587383579    0.0810550186
H       -2.8188668363    0.2227434954    0.5525861219
H        2.1576840426    1.6756694072   -0.3574046237
H        0.4156633116    1.9257290137   -0.3904126327
H        1.5338398116    0.2075590596    1.0929667268
19   
torsion grid (60,)
C        1.1526185197    1.0636587282   -2.1284595965
C       -0.3142278616   -1.7374132520    1.0268468416
C       -2.1737922607    0.5902943615   -0.3648628616
C        1.2580222501    1.1730487989   -0.6068113950
N        1.1195940815   -0.1302975861    0.0764369194
N       -0.2531813171   -0.3450773142    0.5669040376
O       -1.0874552734   -0.2982312172   -0.6110814948
H        1.3451973616    2.0394720353   -2.5901716594
H        1.8921854326    0.3505122898   -2.5059041011
H        0.1633965546    0.7179800021   -2.4316739098
H       -1.3391673353   -1.9467264529    1.3419880367
H       -0.0060154888   -2.4354848792    0.2395317607
H        0.3455127070   -1.8447638582    1.8941669009
H       -2.7767169006    0.5707228240   -1.2771663125
H       -1.8235733575    1.6108979257   -0.1717778520
H       -2.7835819690    0.2539979510    0.4830337643
H        2.2565973679    1.5469909089   -0.3505450661
H        0.5369071929    1.9036066167   -0.2122059735
H        1.6394895561   -0.0666060317    0.9521965712
19   
torsion grid (75,)
C        1.0635751601    1.2260015775   -2.0786305675
C       -0.3231807704   -1.6675152972    1.1511177402
C       -2.1624103385    0.4879771404   -0.5064594788
C        1.3407762052    1.1299597624   -0.5774078869
N        1.1108316313   -0.2239617558   -0.0329302212
N       -0.2393599608   -0.3485382397    0.5111119560
O       -1.0972064950   -0.4456226693   -0.6558578845
H        1.3330007148    2.2231063474   -2.4463061850
H        1.6576846258    0.4831261548   -2.6195682242
H        0.0125350545    1.0411978795   -2.3054187559
H       -1.3573598172   -1.8262657138    1.4629132645
H       -0.0074098755   -2.4681479274    0.4708640807
H        0.3106341313   -1.6639277037    2.0445192509
H       -2.7804607123    0.3697244804   -1.4010081562
H       -1.7898217231    1.5176376876   -0.4454579665
H       -2.7667278012    0.2732212801    0.3842206227
H        2.3990057454    1.3572782173   -0.4013606201
H        0.7523533073    1.8748730036   -0.0208403856
H        1.6953501785   -0.3235423736    0.7969440274
19   
torsion grid (90,)
C        1.0131341257    1.4064050224   -1.9786387607
C       -0.3556005513   -1.4902300222    1.2495504571
C       -2.2308621239    0.2876750402   -0.6251380077
C        1.5197311326    1.0506569655   -0.5809702663
N        1.1148420446   -0.2991481585   -0.1503615798
N       -0.2200430400   -0.2985091662    0.4026632778
O       -1.0873482906   -0.5490727269   -0.7466980194
H        1.4430336535    2.3622632695   -2.2993159937
H        1.3012140269    0.6313830912   -2.6948913985
H       -0.0744934247    1.4957305672   -2.0029528259
H       -1.4049569338   -1.5918970639    1.5317155520
H       -0.0243238809   -2.3989865477    0.7290654751
H        0.2318056334   -1.3405437096    2.1620801237
H       -2.8235695583    0.1055033531   -1.5258816627
H       -1.9492675151    1.3463314959   -0.5697688398
H       -2.8336422449    0.0344459773    0.2582408892
H        2.6163810127    1.0445611132   -0.5927221919
H        1.1966135944    1.8091735287    0.1484206521
H        1.7191615998   -0.5891601786    0.6160477295
19   
torsion grid (105,)
C        1.0025802017    1.5704384251   -1.8373696695
C       -0.3649034754   -1.2987656049    1.3239012586
C       -2.2944073493    0.1029346822   -0.7355535187
C        1.6439864027    0.9596595174   -0.5929971676
N        1.0869679651   -0.3604575143   -0.2767864123
N       -0.2173712942   -0.2802849694    0.2804587035
O       -1.1235425482   -0.6985405240   -0.8032999008
H        1.4942437476    2.5164190307   -2.0904487607
H        1.0867333186    0.8860442006   -2.6865064777
H       -0.0580178451    1.7742834536   -1.6707242959
H       -1.4121330939   -1.3406952755    1.6284697157
H       -0.0529342331   -2.2936068265    0.9725398459
H        0.2341163232   -0.9980011187    2.1899112306
H       -2.9051095359   -0.1957953545   -1.5921332715
H       -2.0550084296    1.1712410541   -0.8033978081
H       -2.8663152350   -0.0733084520    0.1873089957
H        2.7138669646    0.8010683294   -0.7744628463
H        1.5473355304    1.6530516663    0.2575141386
H        1.6917218461   -0.8791028689    0.3540208506
19   
torsion grid (120,)
C        1.0046184935    1.7096230664   -1.6898317431
C       -0.3310077459   -1.1689992608    1.3847455476
C       -2.3269758730   -0.0214526052   -0.8515464818
C        1.6729099538    0.8853296461   -0.5919825120
N        1.0172064283   -0.4105813354   -0.4022015818
N       -0.2476642684   -0.3212412893    0.1954879315
O       -1.2120751106   -0.8964818802   -0.7577638225
H        1.5536572923    2.6436130437   -1.8533655926
H        0.9734625288    1.1459851109   -2.6270979172
H       -0.0204464065    1.9648163068   -1.4082594980
H       -1.3567426143   -1.1603969055    1.7590375096
H       -0.0405863553   -2.2094854755    1.1691789199
H        0.3267857689   -0.7499698954    2.1529310337
H       -3.0103441386   -0.4897256280   -1.5659844328
H       -2.0326989403    0.9689966829   -1.2193802498
H       -2.8422985561    0.0951237109    0.1126742382
H        2.7078549158    0.6615964942   -0.8767849533
H        1.7071605731    1.4684678906    0.3427921979
H        1.6089933143   -1.0986358268    0.0577960168
19   
torsion grid (135,)
C        0.7962080519    1.8583194406   -1.4393314747
C       -0.1693986107   -1.1290352848    1.5733469653
C       -2.1183278336   -0.0635048987   -1.1744769760
C        1.5244994844    0.7866647454   -0.6334654547
N        0.7596791576   -0.4599811123   -0.5133732687
N       -0.3495230879   -0.3553677069    0.3479144233
O       -1.4999281583   -0.9857917341   -0.2909369484
H        1.4187025834    2.7566113234   -1.5173430472
H        0.5737914757    1.5001667426   -2.4491842767
H       -0.1425118493    2.1360132992   -0.9538194364
H       -1.0710758148   -1.0485396201    2.1827176320
H        0.0271699137   -2.1930463521    1.3625437498
H        0.6752972687   -0.7016518624    2.1209951321
H       -3.0118635152   -0.5708954149   -1.5486535006
H       -1.4622843600    0.1814396113   -2.0177418126
H       -2.4046430608    0.8566623026   -0.6495211948
H        2.4589238771    0.5168999107   -1.1396144578
H        1.7997600157    1.1938369993    0.3535345177
H        1.3473337222   -1.2622185384   -0.2831459617
19   
torsion grid (150,)
C        0.8974692930    1.9329778507   -1.2939676742
C       -0.1367712338   -0.9640436704    1.5454596939
C       -2.2103592105   -0.2213469571   -1.2127546283
C        1.5516906551    0.7166812560   -0.6427786695
N        0.6611883367   -0.4517189815   -0.6497565330
N       -0.4071297814   -0.3030034659    0.2691228096
O       -1.5404247316   -1.0391168985   -0.2606558852
H        1.5854794872    2.7855148110   -1.2887772685
H        0.6239276174    1.7116789433   -2.3303193847
H       -0.0078882722    2.2170658364   -0.7515131825
H       -0.9979426597   -0.8354792308    2.2038415654
H        0.0599087259   -2.0404065412    1.4140837696
H        0.7356752667   -0.4850547752    1.9985049225
H       -3.0531208444   -0.8174319576   -1.5729350981
H       -1.5489407891    0.0230635879   -2.0520733499
H       -2.5756988298    0.7030778109   -0.7482144102
H        2.4419198075    0.4218483519   -1.2101878096
H        1.8912296164    0.9758048473    0.3739466689
H        1.1815968065   -1.3135289668   -0.4605809262
19   
torsion grid (165,)
C        1.0437973912    1.9994852170   -1.1463358700
C       -0.1280744967   -0.7876558944    1.4959008253
C       -2.3266225759   -0.4034236443   -1.2245161735
C        1.5855889120    0.6554344602   -0.6619837815
N        0.5766741483   -0.4070171128   -0.7718330250
N       -0.4731716231   -0.2402721412    0.1810261578
O       -1.5459860803   -1.1030043357   -0.2577089934
H        1.8209520543    2.7691822222   -1.0873030361
H        0.7069718268    1.9213555147   -2.1846941991
H        0.1949907459    2.3158581483   -0.5348500069
H       -0.9813638160   -0.6613492396    2.1650251591
H        0.1306395513   -1.8570690040    1.4361117620
H        0.7217198372   -0.2279535753    1.8942711050
H       -3.1053764799   -1.1038345922   -1.5375854099
H       -1.7132263703   -0.1221857046   -2.0877424844
H       -2.7808613142    0.4923625827   -0.7839492316
H        2.4215825347    0.3388806261   -1.2956983853
H        1.9852588562    0.7605646275    0.3601991382
H        1.0183161586   -1.3227763041   -0.6278889406
19   
torsion grid (180,)
C        1.1911463129    2.0370834868   -0.9414122281
C       -0.1401093029   -0.5770774375    1.4289804443
C       -2.4183010958   -0.6002550139   -1.2424393420
C        1.6159780576    0.5874169859   -0.7090561275
N        0.4970508251   -0.3471432995   -0.8986172416
N       -0.5449984449   -0.1661683950    0.0791923045
O       -1.5347413863   -1.1559237006   -0.2675586927
H        2.0578882175    2.7030000767   -0.8728120631
H        0.7429724899    2.1454080673   -1.9338108874
H        0.4513918609    2.3539395575   -0.2016666256
H       -1.0111518656   -0.5074497086    2.0829706705
H        0.2466634713   -1.6087229752    1.4459910048
H        0.6286497557    0.1076445637    1.7932224680
H       -3.1237946017   -1.3984054365   -1.4879903290
H       -1.8662847187   -0.3023387621   -2.1401068139
H       -2.9546991237    0.2632837023   -0.8318450493
H        2.3657704666    0.2968591635   -1.4532352180
H        2.0977384077    0.4926573072    0.2773881065
H        0.8506399343   -1.3072263314   -0.7967497702
