38   
torsion grid (-165,)
C       -6.1418884872    5.5265669348   -5.9420583295
C       -6.7891822191    5.7241500580   -4.7163373336
C       -4.9602347262    4.7904119036   -5.9875835678
C       -6.2209762365    5.2340464286   -3.5387179695
C       -4.4145217448    4.2111863345   -4.8286702912
C       -5.0315790401    4.5127068873   -3.6055484550
C       -2.1357960562    1.5721523184   -1.5909285064
C       -1.8651717629    0.8205530999   -0.5018162585
C       -1.4212865220    1.3658904125   -2.8475376557
C       -3.1607471393    3.4086736665   -5.0057084831
C       -0.8255133775   -0.2756926635   -0.5210383596
C       -0.2102088782    0.4655033269   -2.8247584644
C       -0.4358719955   -0.7706602123   -1.9299847666
C       -2.5820993955    1.0339316537    0.8018138353
C        0.8623725565   -1.5868229558   -1.8491240376
C       -1.5550114789   -1.6527642020   -2.5144345762
N       -1.7014622865    1.8883547829   -3.9960178715
O       -2.5338726510    3.3698202398   -6.0409506431
O       -2.8640423452    2.7214425438   -3.8693444429
F       -4.4151440898    4.2565826901   -2.4255052950
H       -6.5564569888    5.9461549452   -6.8539523986
H       -7.7151496524    6.2908007270   -4.6692191353
H       -4.4448399528    4.6096249659   -6.9254136511
H       -6.6570577215    5.4401537787   -2.5660199866
H       -2.9009753206    2.3396305628   -1.5592104899
H        0.0697341798    0.1012171905   -0.0033830075
H       -1.1790207310   -1.1200705127    0.0853815014
H        0.0472517994    0.1764864039   -3.8471873979
H        0.6336535720    1.0441988248   -2.4251071760
H       -3.1592155756    0.1409214474    1.0739715179
H       -3.2631344462    1.8875994482    0.7600148438
H       -1.8640090943    1.2013858194    1.6148293598
H        1.1472919370   -1.9679726621   -2.8359968745
H        0.7424337512   -2.4475226438   -1.1809923022
H        1.6925688201   -0.9798638775   -1.4701990373
H       -1.3056856841   -1.9669208266   -3.5336326899
H       -2.5131699171   -1.1268498072   -2.5540858334
H       -1.6902163624   -2.5553511912   -1.9079519102
38   
torsion grid (-150,)
C       -6.1149281111    5.5502764071   -5.9243434346
C       -6.8296214618    5.6127850803   -4.7218659301
C       -4.9014142314    4.8641380569   -5.9715818035
C       -6.2737042146    5.0909033750   -3.5497981173
C       -4.4141270702    4.1881603858   -4.8423125591
C       -5.0435188093    4.4405485953   -3.6118234255
C       -2.1336286158    1.5714248184   -1.6056504516
C       -1.8566241540    0.8359903950   -0.5072137134
C       -1.4343937150    1.3389911488   -2.8662961843
C       -3.1349323750    3.4262006764   -5.0065660790
C       -0.8264396424   -0.2692715155   -0.5198324761
C       -0.2275723852    0.4332156087   -2.8402141946
C       -0.4523286314   -0.7878036325   -1.9245583347
C       -2.5557514205    1.0778240890    0.8011467099
C        0.8418752713   -1.6102746081   -1.8428051649
C       -1.5817452204   -1.6720683076   -2.4855118708
N       -1.7247389293    1.8431056015   -4.0203248426
O       -2.4500467101    3.4611884748   -6.0043604649
O       -2.8917056864    2.6708638808   -3.8997897797
F       -4.3581058164    4.3613031239   -2.4425839737
H       -6.5012931782    6.0357026052   -6.8156845899
H       -7.7835762527    6.1311760440   -4.6769253846
H       -4.3403754206    4.7652543494   -6.8954568353
H       -6.7313607985    5.2647261761   -2.5805207061
H       -2.8908730746    2.3470303858   -1.5777688531
H        0.0760735182    0.1074961139   -0.0148556116
H       -1.1818387451   -1.1018722146    0.1016030725
H        0.0197683401    0.1270809239   -3.8601353675
H        0.6223973115    1.0136710820   -2.4564838025
H       -3.1377952531    0.1949948347    1.0951448587
H       -3.2292715216    1.9371170797    0.7531539892
H       -1.8263927211    1.2520703097    1.6026020516
H        1.1155150229   -2.0083709468   -2.8261727251
H        0.7231298758   -2.4597544471   -1.1602581572
H        1.6789787341   -1.0023784958   -1.4809849483
H       -1.3435127974   -2.0029840214   -3.5020653700
H       -2.5372341079   -1.1412334459   -2.5244198173
H       -1.7165573523   -2.5646070071   -1.8642673910
38   
torsion grid (-135,)
C       -6.0684897719    5.6067835859   -5.8834897246
C       -6.8470101382    5.5188901897   -4.7228446443
C       -4.8354105150    4.9509014526   -5.9349588311
C       -6.3212338857    4.9297330130   -3.5656435787
C       -4.4211551154    4.1520961588   -4.8614324747
C       -5.0613273292    4.3357283472   -3.6198904166
C       -2.1253274448    1.5696786475   -1.6243100523
C       -1.8389440092    0.8523371598   -0.5164050871
C       -1.4414447140    1.3120729306   -2.8885484516
C       -3.1278931223    3.4153140296   -5.0194814244
C       -0.8142911692   -0.2581040477   -0.5213945176
C       -0.2367004317    0.4037740410   -2.8592065917
C       -0.4560946250   -0.8010805918   -1.9210427492
C       -2.5210350997    1.1210220986    0.7957080430
C        0.8362238348   -1.6264418166   -1.8386087396
C       -1.5939577503   -1.6907227381   -2.4558077313
N       -1.7438339558    1.7963045378   -4.0479555472
O       -2.4132987177    3.4942649917   -5.9936226982
O       -2.9131681723    2.6211175828   -3.9323355434
F       -4.3489982325    4.4069399560   -2.4629431777
H       -6.4192213634    6.1818566527   -6.7353220581
H       -7.8189354461    6.0028966739   -4.6789094309
H       -4.2291473444    4.9379933405   -6.8352976642
H       -6.8063923561    5.0592739135   -2.6024650719
H       -2.8775820796    2.3503759435   -1.6007529867
H        0.0947803423    0.1224425900   -0.0312348932
H       -1.1674743594   -1.0788438939    0.1168657616
H       -0.0001204795    0.0798054909   -3.8761551029
H        0.6184019890    0.9882226633   -2.4934268324
H       -3.1040109759    0.2466556973    1.1122796668
H       -3.1906527464    1.9829364138    0.7404891162
H       -1.7812241024    1.3055878978    1.5851682819
H        1.0984571488   -2.0420274052   -2.8178371379
H        0.7217728269   -2.4638369253   -1.1405705738
H        1.6789385854   -1.0153320357   -1.4957292343
H       -1.3672671980   -2.0389799470   -3.4692060587
H       -2.5481877677   -1.1575287385   -2.4935677199
H       -1.7250550889   -2.5725340059   -1.8186615344
38   
torsion grid (-120,)
C       -6.0399936922    5.6734928319   -5.8291586790
C       -6.8590788041    5.4657263213   -4.7129950436
C       -4.7974358412    5.0290314997   -5.8948258833
C       -6.3476923978    4.8166930912   -3.5777176660
C       -4.4431220220    4.1197172538   -4.8936041451
C       -5.0685753316    4.2626320607   -3.6318916694
C       -2.1416714449    1.5762261651   -1.6511777832
C       -1.8493368797    0.8781417137   -0.5326419718
C       -1.4636505573    1.2984224314   -2.9143265411
C       -3.1380585080    3.4039144164   -5.0457385403
C       -0.8237702026   -0.2314024681   -0.5242361515
C       -0.2567058844    0.3935082732   -2.8748866783
C       -0.4705331275   -0.7963801508   -1.9164208165
C       -2.5241153134    1.1692356440    0.7784732852
C        0.8232859459   -1.6185264790   -1.8258635699
C       -1.6092462813   -1.6961230767   -2.4321399663
N       -1.7728197571    1.7626767008   -4.0800418736
O       -2.3907849655    3.5206196328   -5.9911441153
O       -2.9499184140    2.5769462702   -3.9761878234
F       -4.3187415955    4.4929620261   -2.5157226751
H       -6.3645099341    6.3285075947   -6.6320750818
H       -7.8401173030    5.9303423777   -4.6604152031
H       -4.1619891261    5.0847934341   -6.7734756207
H       -6.8367129123    4.9231659110   -2.6130522890
H       -2.8927317003    2.3583440849   -1.6361276369
H        0.0868573289    0.1583066757   -0.0442630929
H       -1.1730604116   -1.0420950109    0.1288244320
H       -0.0235623340    0.0532818739   -3.8872999947
H        0.5986162918    0.9854738986   -2.5220477160
H       -3.1053958514    0.3004901926    1.1131031192
H       -3.1939233488    2.0302577517    0.7124058767
H       -1.7799473831    1.3671210853    1.5605587530
H        1.0823039896   -2.0493555464   -2.7993387737
H        0.7127485818   -2.4448098660   -1.1140896454
H        1.6664410679   -1.0008455231   -1.4961047560
H       -1.3860238832   -2.0605630453   -3.4406037922
H       -2.5643955052   -1.1649527635   -2.4748558032
H       -1.7366103706   -2.5675988697   -1.7801943286
38   
torsion grid (-105,)
C       -5.9853367646    5.7365645992   -5.7571552087
C       -6.8639533328    5.3826579052   -4.7260693308
C       -4.7308255544    5.1054328542   -5.8298907719
C       -6.3934640326    4.6400824489   -3.6258262133
C       -4.4566152888    4.0766720110   -4.9285211010
C       -5.0907661939    4.1339176288   -3.6564101569
C       -2.1356978504    1.5765960999   -1.6814389862
C       -1.8325201979    0.9002450972   -0.5524995833
C       -1.4724828823    1.2718463836   -2.9462924947
C       -3.1432300549    3.3752986155   -5.0768289257
C       -0.8105841621   -0.2125149543   -0.5335571785
C       -0.2661668526    0.3664376928   -2.9013451768
C       -0.4726328822   -0.8045809214   -1.9182796168
C       -2.4906460474    1.2202603005    0.7603483626
C        0.8203681858   -1.6277353520   -1.8251735142
C       -1.6183665124   -1.7114337916   -2.4051936365
N       -1.7943654654    1.7125973156   -4.1176168513
O       -2.3742454173    3.5176745960   -6.0011809518
O       -2.9733293264    2.5246577743   -4.0205434796
F       -4.3778165743    4.4978692656   -2.5455394715
H       -6.2728897818    6.4865194512   -6.4877656382
H       -7.8551633171    5.8257902924   -4.6772816986
H       -4.0548902574    5.2403038820   -6.6689592998
H       -6.9154077591    4.6975018227   -2.6736399157
H       -2.8838962856    2.3616260177   -1.6729241818
H        0.1058632130    0.1828697235   -0.0695731234
H       -1.1562395853   -1.0097121866    0.1378109620
H       -0.0431948341    0.0065084128   -3.9092135521
H        0.5931582794    0.9638262539   -2.5679749908
H       -3.0707662788    0.3605648934    1.1194517459
H       -3.1582864646    2.0821876245    0.6848232357
H       -1.7364924070    1.4312715064    1.5293172748
H        1.0683719768   -2.0779906351   -2.7927015262
H        0.7154989538   -2.4397791719   -1.0963546098
H        1.6681779784   -1.0056963682   -1.5162008846
H       -1.4064999089   -2.0950043132   -3.4089981628
H       -2.5729782273   -1.1792739053   -2.4476944224
H       -1.7403876734   -2.5703810338   -1.7358395422
38   
torsion grid (105,)
C       -6.4418869152    5.5230681010   -5.8446021751
C       -6.5702400354    6.2010066997   -4.6256390606
C       -5.4739746424    4.5108824804   -5.9615029520
C       -5.9581530840    5.6855370506   -3.4678764366
C       -4.6118658781    4.2928779550   -4.8856046432
C       -5.1027518410    4.5847915041   -3.5837088886
C       -2.3537172907    1.7592403230   -1.6035467217
C       -2.1103557157    1.0007802686   -0.5126232137
C       -1.5596548056    1.6147182301   -2.8202738693
C       -3.5426749801    3.2623830597   -5.0731728581
C       -1.0092343253   -0.0335265524   -0.4879091658
C       -0.3221132014    0.7523805313   -2.7547749108
C       -0.5380082824   -0.5000773141   -1.8814674981
C       -2.9239064107    1.1397261426    0.7432452562
C        0.7871421796   -1.2646408935   -1.7486453842
C       -1.5934919821   -1.4203513955   -2.5225351526
N       -1.7932880527    2.1568868836   -3.9700687178
O       -3.2488074823    2.7470090001   -6.1291453633
O       -2.9324390104    3.0257607096   -3.8749658725
F       -5.4623551317    3.5737332055   -2.7336182831
H       -7.0810305253    5.7801839117   -6.6838166245
H       -7.2811642132    7.0171718810   -4.5271185664
H       -5.2347495413    4.0352159627   -6.9078380269
H       -6.3491157606    5.9485322045   -2.4879203537
H       -3.1704846805    2.4722171447   -1.6079850228
H       -0.1574987356    0.3921652752    0.0641824171
H       -1.3380620019   -0.8984085344    0.1028923239
H       -0.0147400380    0.4840298330   -3.7691034057
H        0.4853652097    1.3556806539   -2.3176716211
H       -3.4588450690    0.2060177905    0.9589668581
H       -3.6546636266    1.9491327978    0.6715585509
H       -2.2731776979    1.3331491537    1.6057406200
H        1.1334850677   -1.6199507656   -2.7254585758
H        0.6709149885   -2.1389973250   -1.0978789399
H        1.5733487368   -0.6305836040   -1.3230191089
H       -1.2830264262   -1.7195772582   -3.5292752883
H       -2.5676872087   -0.9308395213   -2.6080709759
H       -1.7237683940   -2.3304957063   -1.9263243331
38   
torsion grid (120,)
C       -6.1535436972    5.6149036755   -5.8401176539
C       -6.4264682695    6.1368670571   -4.5700914933
C       -5.1921092184    4.6039183272   -5.9711192879
C       -5.9227015518    5.4992013783   -3.4250076514
C       -4.4587716378    4.2055100030   -4.8493276137
C       -5.0386505128    4.4309004646   -3.5779343808
C       -2.2016396457    1.6193846481   -1.5985013492
C       -1.9540093903    0.8525832771   -0.5144347472
C       -1.4297626733    1.4629980249   -2.8279483780
C       -3.3932198285    3.1756446974   -5.0554687405
C       -0.8742985601   -0.2043701109   -0.5103206818
C       -0.2040710968    0.5830228253   -2.7822234277
C       -0.4279081028   -0.6703680915   -1.9122486101
C       -2.7429732163    1.0037740648    0.7556546794
C        0.8868389623   -1.4558994297   -1.8003189730
C       -1.5058094320   -1.5706813061   -2.5443415282
N       -1.6742626597    2.0086732488   -3.9738568224
O       -3.0892461774    2.7006280798   -6.1270645473
O       -2.8009088961    2.8905375042   -3.8597149195
F       -5.2877823596    3.3829174394   -2.7412368815
H       -6.6829458657    5.9887516861   -6.7113254173
H       -7.1439830196    6.9447287837   -4.4535972399
H       -4.8781622886    4.2255581480   -6.9392058099
H       -6.3659770194    5.6827295694   -2.4498634763
H       -3.0044324764    2.3479612874   -1.5875671999
H       -0.0081967868    0.1984419123    0.0365498344
H       -1.2154047594   -1.0669394208    0.0770277764
H        0.0872343313    0.3151879719   -3.8014152589
H        0.6171831328    1.1723466507   -2.3517378309
H       -3.2949955220    0.0812897852    0.9765599113
H       -3.4566772481    1.8294808468    0.6995948076
H       -2.0737540471    1.1789844734    1.6078055144
H        1.2139978881   -1.8134075490   -2.7829251963
H        0.7660248209   -2.3304304377   -1.1506065894
H        1.6886453882   -0.8355062148   -1.3837602778
H       -1.2146230463   -1.8667897347   -3.5577485236
H       -2.4739121071   -1.0664036021   -2.6117819586
H       -1.6405834309   -2.4832614503   -1.9528855973
38   
torsion grid (135,)
C       -6.1431674974    5.7090406667   -5.8989969536
C       -6.5187068934    6.1628416140   -4.6282775287
C       -5.1778498023    4.7051359555   -6.0133457460
C       -6.0630657531    5.4976347494   -3.4830067924
C       -4.5381363413    4.2127938994   -4.8681418448
C       -5.1476254745    4.4549391597   -3.6215636237
C       -2.2317068866    1.6636818700   -1.6046764158
C       -1.9615786339    0.9147492829   -0.5134791344
C       -1.4811840912    1.4908797673   -2.8451208219
C       -3.4605166616    3.1942948995   -5.0731318016
C       -0.8775763908   -0.1378419016   -0.5117961452
C       -0.2492512882    0.6194208299   -2.8060027507
C       -0.4510353742   -0.6220463382   -1.9137371737
C       -2.7282734527    1.0827868957    0.7681181429
C        0.8702314973   -1.3979078114   -1.8115424486
C       -1.5334379324   -1.5381524185   -2.5146824266
N       -1.7498100785    2.0149067200   -3.9958546918
O       -3.1341683584    2.7511314754   -6.1515882605
O       -2.8841611933    2.8861246749   -3.8768184652
F       -5.2604816020    3.4707053890   -2.6897124365
H       -6.6011919471    6.1326310475   -6.7878687865
H       -7.2497018008    6.9604066674   -4.5262377642
H       -4.8111348480    4.3684720549   -6.9779429389
H       -6.5191530658    5.6775876745   -2.5137420176
H       -3.0368452936    2.3896333801   -1.5909484099
H       -0.0047835068    0.2760325464    0.0158392330
H       -1.2058341287   -0.9933846760    0.0929409158
H        0.0275850589    0.3379757685   -3.8255534693
H        0.5749334208    1.2202282447   -2.3975253214
H       -3.2728284689    0.1619175409    1.0130573208
H       -3.4459128198    1.9050714030    0.7121273319
H       -2.0446385305    1.2734230610    1.6053920686
H        1.1839475129   -1.7677537611   -2.7939695924
H        0.7653237729   -2.2635531398   -1.1473191146
H        1.6746425348   -0.7666226404   -1.4169523750
H       -1.2567999528   -1.8478888533   -3.5281061031
H       -2.5055234361   -1.0405188229   -2.5739034587
H       -1.6531617701   -2.4424568532   -1.9074853891
38   
torsion grid (150,)
C       -6.0442523245    5.7296475825   -5.8711438454
C       -6.5345774701    6.0839115051   -4.6089390227
C       -5.0591176859    4.7478102105   -5.9772767453
C       -6.1242968383    5.3751348539   -3.4756036077
C       -4.5111403444    4.1479241996   -4.8325552623
C       -5.1658552129    4.3739371826   -3.6093666843
C       -2.1884974248    1.5792368081   -1.5846561669
C       -1.9099813921    0.8305371018   -0.4954209433
C       -1.4519844548    1.4008670772   -2.8326832480
C       -3.4147363156    3.1499755610   -5.0434449282
C       -0.8322687699   -0.2284665893   -0.5043059704
C       -0.2228830943    0.5250376792   -2.8049460588
C       -0.4217330748   -0.7151680688   -1.9101532682
C       -2.6600073179    1.0061394272    0.7950178177
C        0.8967799431   -1.4972428478   -1.8205743977
C       -1.5142393485   -1.6264349809   -2.5001208112
N       -1.7303235447    1.9246437512   -3.9811601280
O       -3.0577690981    2.7572894095   -6.1319812426
O       -2.8675647773    2.7913458476   -3.8496571254
F       -5.1294688756    3.4400756667   -2.6245938827
H       -6.4295232128    6.2135917708   -6.7636905025
H       -7.2904241286    6.8583958363   -4.5103866291
H       -4.6317286693    4.4753314874   -6.9371940947
H       -6.6029517932    5.5193100518   -2.5115524938
H       -2.9878163078    2.3114065301   -1.5631734289
H        0.0478569477    0.1804943892    0.0149356566
H       -1.1595157265   -1.0821017328    0.1036966012
H        0.0433186742    0.2418194793   -3.8268326512
H        0.6073846889    1.1227339338   -2.4043831841
H       -3.2071859162    0.0892395007    1.0488608010
H       -3.3731189704    1.8327753375    0.7457148986
H       -1.9650608882    1.1945688432    1.6234387881
H        1.1984128121   -1.8701296996   -2.8056326546
H        0.7946371987   -2.3613250609   -1.1538837003
H        1.7082918619   -0.8692307315   -1.4354263156
H       -1.2495305016   -1.9369622635   -3.5164928875
H       -2.4847717829   -1.1246442053   -2.5489214599
H       -1.6314774642   -2.5304523453   -1.8920154389
38   
torsion grid (165,)
C       -6.0222856061    5.7535521047   -5.8796269699
C       -6.6169925498    6.0222897547   -4.6412135620
C       -5.0001440130    4.8110125696   -5.9636813827
C       -6.2254340145    5.3063648240   -3.5081298313
C       -4.5260305891    4.1394328161   -4.8230215517
C       -5.2112243875    4.3587102973   -3.6181807099
C       -2.1798774012    1.5643283110   -1.5755345696
C       -1.8909172350    0.8208367328   -0.4854599312
C       -1.4627782631    1.3727524645   -2.8328411631
C       -3.3969117571    3.1756472897   -5.0319092693
C       -0.8221505468   -0.2470970187   -0.5033557607
C       -0.2375755305    0.4912254149   -2.8154280094
C       -0.4325845418   -0.7433401296   -1.9118453231
C       -2.6185618412    1.0124793537    0.8155163337
C        0.8821334860   -1.5331340455   -1.8351410072
C       -1.5380644319   -1.6508659391   -2.4831444099
N       -1.7542229996    1.8898623762   -3.9810167090
O       -2.9879896579    2.8546425006   -6.1257340174
O       -2.8950873120    2.7509892258   -3.8408775919
F       -5.0253755641    3.5421156726   -2.5521011888
H       -6.3557603327    6.2747436490   -6.7721279366
H       -7.4106486835    6.7601292177   -4.5608099338
H       -4.5119539892    4.5933500053   -6.9082556087
H       -6.7220906052    5.4346172522   -2.5511904676
H       -2.9711556631    2.3048710998   -1.5468275106
H        0.0675046142    0.1571884579    0.0031681491
H       -1.1485202795   -1.0953398641    0.1126504133
H        0.0150445512    0.2012926236   -3.8388576233
H        0.6003979556    1.0864881942   -2.4275633426
H       -3.1696312009    0.1024149353    1.0850728243
H       -3.3249819991    1.8451272720    0.7714423532
H       -1.9087280603    1.2008421223    1.6312380750
H        1.1685484386   -1.9133009499   -2.8219591437
H        0.7833821577   -2.3928781792   -1.1623492514
H        1.7024634622   -0.9080858637   -1.4641332755
H       -1.2885810111   -1.9677393475   -3.5014196924
H       -2.5062082611   -1.1435547119   -2.5214396625
H       -1.6525975475   -2.5513134966   -1.8692531506
38   
torsion grid (180,)
C       -6.0893773328    5.6681660580   -5.9359146136
C       -6.7319178485    5.9020163912   -4.7142502007
C       -4.9826219425    4.8252863162   -5.9829481199
C       -6.2620754004    5.2907006748   -3.5512107972
C       -4.4853211838    4.1939224688   -4.8277066677
C       -5.1535228158    4.4504349683   -3.6210597469
C       -2.1657925416    1.5782496071   -1.5770608902
C       -1.8776017233    0.8350932926   -0.4865762646
C       -1.4552719732    1.3782570439   -2.8367591534
C       -3.2859954026    3.3126026301   -5.0195908916
C       -0.8191436377   -0.2429808555   -0.5068107780
C       -0.2346830867    0.4902657458   -2.8207513518
C       -0.4356916064   -0.7424663369   -1.9158166294
C       -2.5942606593    1.0391385450    0.8186378830
C        0.8740962847   -1.5406273077   -1.8412728761
C       -1.5480819359   -1.6433788380   -2.4841880244
N       -1.7465917714    1.8955191811   -3.9848717157
O       -2.7500722466    3.1493317861   -6.0934132847
O       -2.9008425759    2.7392979242   -3.8480304062
F       -4.7489274091    3.8885796143   -2.4565355456
H       -6.4505436851    6.1412306207   -6.8443386678
H       -7.5966247969    6.5581338332   -4.6637704992
H       -4.4663380660    4.6285370383   -6.9169246203
H       -6.7373705156    5.4513067800   -2.5884144179
H       -2.9468203210    2.3293795541   -1.5454927180
H        0.0748159052    0.1532585910   -0.0015022750
H       -1.1520940829   -1.0883142750    0.1097425014
H        0.0148875305    0.1977944552   -3.8441801533
H        0.6071494884    1.0810449310   -2.4345339002
H       -3.1535423844    0.1362093330    1.0952422148
H       -3.2915464814    1.8795457474    0.7763906207
H       -1.8768705878    1.2224961315    1.6288639785
H        1.1560732538   -1.9233268598   -2.8283929399
H        0.7712644804   -2.3991973617   -1.1675808777
H        1.6991260275   -0.9205101513   -1.4724607104
H       -1.3024859067   -1.9629585130   -3.5025908082
H       -2.5129837063   -1.1297703603   -2.5210256121
H       -1.6673876077   -2.5424491125   -1.8691923224
