18   
torsion grid (-165,)
C        3.8170672104   -1.1198506436   -1.8773931861
C        2.3854850911   -0.8815185164   -1.3790121483
C        1.9713949322    0.5716386577   -1.4865454677
C        0.9191074239    1.1611060646   -0.8949305706
C        0.6179094679    2.6268116416   -1.1014000257
C       -0.0480666385    0.4333317085    0.0075408484
H        4.0942809057   -2.1765002775   -1.8007621641
H        4.5391648403   -0.5387444429   -1.2929020243
H        3.9227590554   -0.8219067188   -2.9267932953
H        1.6967549809   -1.5092258284   -1.9617922837
H        2.3019430417   -1.2271306153   -0.3420219561
H        2.5962372729    1.1885565371   -2.1348108077
H       -0.3840995239    2.7669558933   -1.5281839727
H        0.6298226150    3.1689179080   -0.1464631585
H        1.3420041924    3.1004748062   -1.7704108079
H       -0.0991382646    0.9150730792    0.9927273509
H       -1.0630892075    0.4687444617   -0.4095656650
H        0.2147562975   -0.6159472103    0.1555051189
18   
torsion grid (-150,)
C        3.7677623306   -1.1080412360   -1.7221954326
C        2.2676663377   -0.9051614463   -1.4616351544
C        1.8640559897    0.5492200612   -1.5360573937
C        0.8726129933    1.1680103605   -0.8724409612
C        0.5902010529    2.6374551171   -1.0841681829
C       -0.0427575180    0.4889921510    0.1181426509
H        4.0375190938   -2.1687771071   -1.6815714260
H        4.3717740358   -0.5761314606   -0.9788663926
H        4.0495655607   -0.7296646645   -2.7114504797
H        1.7008253386   -1.4798298737   -2.2085173816
H        2.0060826203   -1.3334277505   -0.4887288865
H        2.4425905963    1.1481357574   -2.2424312584
H       -0.4362155016    2.7933366560   -1.4419297783
H        0.6812335867    3.1947529273   -0.1423771850
H        1.2751150291    3.0833011918   -1.8110046046
H       -0.0140755053    1.0025460290    1.0879473119
H       -1.0834573177    0.5360042444   -0.2285151002
H        0.2046547462   -0.5613518668    0.2823441022
18   
torsion grid (-135,)
C        3.7662756904   -1.0966887867   -1.6183712824
C        2.2379371540   -0.9289747770   -1.5917239407
C        1.8217427867    0.5197083688   -1.6357279185
C        0.8925234794    1.1486935305   -0.8953551435
C        0.6036139619    2.6186961629   -1.0978263493
C        0.0582637673    0.4934536756    0.1795781247
H        4.0482037325   -2.1552686030   -1.6199511753
H        4.2280690085   -0.6224460489   -0.7456471901
H        4.1971924145   -0.6349507273   -2.5140645572
H        1.8144093722   -1.4494005649   -2.4629916139
H        1.8302969494   -1.4315520667   -0.7099482599
H        2.3451241730    1.1145855827   -2.3876205318
H       -0.4486021595    2.7789573010   -1.3679680166
H        0.7788194032    3.1843679468   -0.1731114989
H        1.2266184239    3.0520306131   -1.8853563067
H        0.1749005777    1.0230980973    1.1339428603
H       -1.0077671115    0.5460874165   -0.0775959606
H        0.3092485420   -0.5559882603    0.3428619022
18   
torsion grid (-120,)
C        3.6868811640   -1.0839452536   -1.5356777182
C        2.1743636623   -0.8906419664   -1.7457756682
C        1.7884668239    0.5648382134   -1.7973482595
C        0.9459371916    1.2397032293   -0.9958848954
C        0.6917264866    2.7152272618   -1.2051032910
C        0.1830728813    0.6365183243    0.1596569427
H        3.9554218628   -2.1461723058   -1.5484567703
H        4.0037272187   -0.6619563724   -0.5760348433
H        4.2610979369   -0.5837116400   -2.3237793487
H        1.8879980699   -1.3671664962   -2.6938131003
H        1.6265798534   -1.4198413271   -0.9611903674
H        2.2781738208    1.1305058409   -2.5931558657
H       -0.3735463851    2.9081706084   -1.3888175363
H        0.9643265180    3.2913772530   -0.3109450587
H        1.2599298836    3.1110030592   -2.0516264766
H        0.4108138089    1.1724337118    1.0901725726
H       -0.8985382800    0.7355959114   -0.0000934122
H        0.4022746714   -0.4205145721    0.3192920325
18   
torsion grid (-105,)
C        3.5500691410   -0.9739108596   -1.3469801792
C        2.0829848170   -0.8157414636   -1.7882261541
C        1.6470139498    0.6272276682   -1.8142658397
C        0.8569765109    1.2723045985   -0.9382579420
C        0.5472901722    2.7421641325   -1.1058908076
C        0.2134794989    0.6334141663    0.2695083567
H        3.8635218684   -2.0235005407   -1.3824893379
H        3.6874504597   -0.6083528935   -0.3239152335
H        4.2208393900   -0.4001034710   -1.9963075565
H        1.9675857726   -1.2392522233   -2.7945700658
H        1.4411180041   -1.4110913993   -1.1323497281
H        2.0654737094    1.2142318487   -2.6343198854
H       -0.5344183386    2.9078691310   -1.1965754717
H        0.8794454016    3.3160809758   -0.2306343798
H        1.0311651108    3.1621623530   -1.9922260583
H        0.5229514950    1.1521549421    1.1860833303
H       -0.8796055441    0.7199595938    0.2164615099
H        0.4628443914   -0.4229085217    0.3840064158
18   
torsion grid (-90,)
C        3.4513332393   -0.9876367291   -1.2242685641
C        2.0706559370   -0.8249301869   -1.8877113316
C        1.6059553500    0.6120201698   -1.9092930067
C        0.8827509746    1.2466598327   -0.9704358411
C        0.5283664239    2.7086191236   -1.1097724629
C        0.3669315207    0.5908898953    0.2883319539
H        3.7877962956   -2.0303148134   -1.2584405665
H        3.4150161933   -0.6722486474   -0.1762770022
H        4.2046293650   -0.3719297762   -1.7280409795
H        2.1214930592   -1.1989048352   -2.9173384538
H        1.3455782728   -1.4615198595   -1.3699608807
H        1.9455434559    1.2004160582   -2.7631682709
H       -0.5604708884    2.8508921545   -1.1103118221
H        0.9195368767    3.2902428485   -0.2644825784
H        0.9280972094    3.1382391384   -2.0327148633
H        0.7740607071    1.0933750691    1.1754009804
H       -0.7252423014    0.6803872905    0.3531335182
H        0.6248055831   -0.4675480702    0.3578476147
18   
torsion grid (-75,)
C        3.3562035696   -0.9774625975   -1.1237083038
C        2.0871603545   -0.8059703532   -1.9799933738
C        1.5712039052    0.6169846094   -1.9984384245
C        0.9168394798    1.2456257597   -1.0066016927
C        0.5171247799    2.6973221285   -1.1234293361
C        0.5174216936    0.5795436028    0.2887191598
H        3.7141688184   -2.0132100071   -1.1514723435
H        3.1634083661   -0.7105894285   -0.0801527908
H        4.1623634653   -0.3297705970   -1.4851204635
H        2.3003071547   -1.1233725260   -3.0066453138
H        1.3133849343   -1.4889938031   -1.6085650149
H        1.8193428505    1.2020528284   -2.8847391755
H       -0.5717088578    2.8142318704   -1.0429697554
H        0.9565517617    3.2916161763   -0.3111992704
H        0.8375193612    3.1323568637   -2.0743707055
H        1.0514874760    1.0290382790    1.1362383460
H       -0.5531956914    0.7238647346    0.4822460941
H        0.7206090680   -0.4931811845    0.2968991347
18   
torsion grid (-60,)
C        2.8951251730   -2.1533809578   -1.3940479088
C        3.5665278193   -0.8063050238   -1.7207292907
C        2.8708954344    0.4024511946   -1.1247346473
C        1.6078700685    0.8061064538   -1.3469432458
C        1.0126106062    1.9710056309   -0.5918456925
C        0.6921198744    0.1817614252   -2.3744229796
H        3.4646819443   -2.9849348762   -1.8248795061
H        1.8766101646   -2.2045186340   -1.7856930607
H        2.8386972548   -2.3069677105   -0.3108408393
H        4.6017777626   -0.8281455698   -1.3649532075
H        3.6305185420   -0.7036294003   -2.8132133130
H        3.4373443732    0.9469354448   -0.3685844821
H        0.7276509832    2.7817584612   -1.2752759249
H        0.0968215078    1.6680701654   -0.0667290849
H        1.7089686825    2.3757886086    0.1479986654
H       -0.0994118643   -0.4080178662   -1.8934504657
H        0.1899927771    0.9619935453   -2.9596923353
H        1.2219107852   -0.4706940653   -3.0716218108
18   
torsion grid (-45,)
C        2.8136360632   -2.1212612432   -1.5377106143
C        3.5780042786   -0.7917695697   -1.6684314984
C        2.8723916936    0.4497374995   -1.1526156780
C        1.5982880423    0.8389621651   -1.3350452203
C        1.0538653247    2.0599449992   -0.6294655465
C        0.6144063639    0.1594756010   -2.2627647228
H        3.4627367435   -2.9590077763   -1.8167626266
H        1.9300411454   -2.1632857758   -2.1763335572
H        2.4838024266   -2.2796943581   -0.5051060264
H        4.5263336721   -0.8837079167   -1.1283810708
H        3.8587277925   -0.6505108161   -2.7231114050
H        3.4725172929    1.0653469208   -0.4816123821
H        0.7406569714    2.8269468790   -1.3499594507
H        0.1635057733    1.8024788384   -0.0400693875
H        1.7897336030    2.5042347248    0.0466524411
H       -0.0504075771   -0.5211701897   -1.7152698394
H       -0.0262601876    0.9066434062   -2.7454702846
H        1.1074181115   -0.4124323740   -3.0511447715
18   
torsion grid (-30,)
C        2.9139574008   -2.1731685828   -1.7298280907
C        3.6408316242   -0.8275693430   -1.5685035125
C        2.8482490885    0.3948969242   -1.1441703480
C        1.5659304161    0.7511211013   -1.3394607981
C        1.0384886236    2.0390405050   -0.7434899707
C        0.5295731977   -0.0120241601   -2.1323361054
H        3.6444022994   -2.9896206345   -1.7413469043
H        2.3465630104   -2.2403848319   -2.6606720124
H        2.2226854859   -2.3517367900   -0.8997748756
H        4.4242651479   -0.9613133906   -0.8126133784
H        4.1848749654   -0.5986002227   -2.4969034182
H        3.4477166235    1.1021691819   -0.5685123831
H        0.6871033745    2.7210922017   -1.5289691453
H        0.1764302942    1.8423981332   -0.0919840283
H        1.7970690789    2.5599635588   -0.1527777900
H       -0.2337398573   -0.4395121908   -1.4686463890
H        0.0035626912    0.6717080112   -2.8103051878
H        0.9458932028   -0.8180358322   -2.7322395512
18   
torsion grid (-15,)
C        3.0076109478   -2.1348564679   -1.8665186770
C        3.6819338296   -0.8264293999   -1.4368953892
C        2.8534918875    0.3912263254   -1.0838777055
C        1.5669005068    0.7314845788   -1.2826477487
C        1.0643239332    2.0752361659   -0.7951774399
C        0.4928093208   -0.0830047851   -1.9663321765
H        3.7582433989   -2.9308516157   -1.9237785810
H        2.5428129698   -2.0593925623   -2.8534619129
H        2.2430285157   -2.4494601369   -1.1492494169
H        4.3022606704   -1.0420800741   -0.5559772124
H        4.4019050205   -0.5271029278   -2.2131149166
H        3.4589706672    1.1484020245   -0.5811754425
H        0.6669495092    2.6700160632   -1.6284175990
H        0.2399784570    1.9490310280   -0.0806994236
H        1.8507349036    2.6572025119   -0.3067680403
H       -0.3535952632   -0.2418542903   -1.2852300573
H        0.0954062187    0.4713811403   -2.8267939431
H        0.8270724867   -1.0541436076   -2.3198661103
18   
torsion grid (0,)
C        3.0632416109   -2.0816233699   -1.9700315326
C        3.6685311165   -0.8206972619   -1.3449966772
C        2.8206613807    0.4060113225   -1.0866600922
C        1.5250476695    0.7092145469   -1.2871786690
C        1.0095510377    2.0789331463   -0.8937681491
C        0.4490065443   -0.1702276253   -1.8822654984
H        3.8405173163   -2.8471859652   -2.0708641996
H        2.6600046247   -1.8906204849   -2.9690454005
H        2.2660989532   -2.5037071960   -1.3507419069
H        4.1282425695   -1.0977884170   -0.3850306252
H        4.5140060122   -0.4974226881   -1.9697471021
H        3.4170342863    1.2042215793   -0.6391072965
H        0.5895533289    2.6032312894   -1.7624913269
H        0.1988601455    1.9952774173   -0.1577332237
H        1.7945101734    2.7076008706   -0.4644984290
H       -0.3739426334   -0.2931158405   -1.1658284357
H        0.0159993897    0.3136745886   -2.7676869358
H        0.7900957138   -1.1592138017   -2.1738610549
18   
torsion grid (15,)
C        3.1051805190   -1.9575849703   -2.0781383546
C        3.7017502345   -0.8091502759   -1.2556600266
C        2.9223354274    0.4703985926   -1.0345735530
C        1.6309515354    0.8132541130   -1.1938761030
C        1.1823284889    2.2194650821   -0.8515588196
C        0.5001886288   -0.0580262595   -1.6905979411
H        3.8737221258   -2.7183063970   -2.2541556538
H        2.7487428022   -1.6126917795   -3.0538635108
H        2.2758087746   -2.4511277983   -1.5639903524
H        3.9962742455   -1.1956814007   -0.2685803573
H        4.6488121462   -0.5144534734   -1.7284764712
H        3.5647294471    1.2608201393   -0.6406255394
H        0.7438831284    2.7146887859   -1.7281837618
H        0.4020514915    2.2039937895   -0.0789733451
H        2.0073777112    2.8388098978   -0.4890996387
H       -0.2853258601   -0.1213451719   -0.9259895451
H        0.0329273779    0.3950559446   -2.5748592137
H        0.7977833647   -1.0702735515   -1.9487098112
18   
torsion grid (30,)
C        3.0811971227   -1.8840758801   -2.2296928651
C        3.6116231365   -0.8869193551   -1.1859801451
C        2.8927123820    0.4356487459   -0.9945333102
C        1.6043288549    0.7920603390   -1.1442536862
C        1.1850157435    2.2292673943   -0.9190326560
C        0.4562432154   -0.1161435036   -1.5212726650
H        3.8528712702   -2.6278022845   -2.4569960057
H        2.8171686661   -1.3769069156   -3.1633957686
H        2.2020931818   -2.4326586374   -1.8844999182
H        3.6957073126   -1.3942563437   -0.2134188869
H        4.6439099916   -0.6367893414   -1.4595572198
H        3.5662235061    1.2358460111   -0.6830128982
H        0.6971141613    2.6375307230   -1.8143238695
H        0.4531440124    2.3024248362   -0.1037682519
H        2.0349239494    2.8722129028   -0.6740357211
H       -0.3902537969    0.0554724775   -0.8446559229
H        0.0953657485    0.1094607085   -2.5335705975
H        0.7049385594   -1.1740716058   -1.4788423128
18   
torsion grid (45,)
C        3.2488313298   -1.5709633036   -2.2313538227
C        3.6428881494   -0.7287612334   -1.0048555624
C        2.9795650077    0.6307909207   -0.8743689097
C        1.6875247936    0.9639968800   -1.0406769875
C        1.2476435191    2.4090309393   -0.9819773116
C        0.5625499967   -0.0263065709   -1.2506623360
H        3.8798763275   -2.4647483758   -2.2942358253
H        3.3830030702   -0.9978144663   -3.1552894065
H        2.2103282190   -1.9036929259   -2.1974624458
H        3.4576336103   -1.3222526684   -0.0967980270
H        4.7262041480   -0.5697650555   -1.0284476386
H        3.6700718710    1.4549264440   -0.6916111717
H        0.7218865560    2.6921169396   -1.9038530944
H        0.5428791301    2.5752519945   -0.1566387908
H        2.0938788872    3.0896866715   -0.8530549711
H       -0.3411564309    0.3143307252   -0.7320061937
H        0.3017196325   -0.1193567870   -2.3128861724
H        0.8044090239   -1.0220795280   -0.8743674354
18   
torsion grid (60,)
C        3.4769213972   -1.5729786079   -2.3524751685
C        3.6874183003   -0.8187528900   -1.0262204301
C        3.0171512996    0.5403165627   -0.9639557315
C        1.7045575919    0.8064110793   -1.0816110865
C        1.1921018710    2.2269540129   -1.1122399119
C        0.6322936068   -0.2563510587   -1.1516941277
H        4.0131344268   -2.5289588861   -2.3440853997
H        3.8485774868   -0.9837450985   -3.1979255659
H        2.4206194356   -1.7812562816   -2.5374640055
H        3.3300579584   -1.4532386542   -0.2028872848
H        4.7612577030   -0.6902686864   -0.8554614620
H        3.6907850265    1.3957015378   -0.9037529238
H        0.6126155668    2.4126661447   -2.0265128949
H        0.5168547356    2.4225126213   -0.2687965912
H        2.0071692940    2.9552078526   -1.0742222983
H       -0.1985035068   -0.0024440560   -0.4818127432
H        0.2098139982   -0.3269489670   -2.1627446141
H        0.9988942902   -1.2456446193   -0.8699758606
18   
torsion grid (75,)
C        3.5954805849   -1.5484565481   -2.3997412132
C        3.6255486799   -0.8632776752   -1.0203435595
C        2.9902714640    0.5106734885   -1.0259849309
C        1.6751811465    0.7859183558   -1.0695982028
C        1.1704552918    2.2073815109   -1.1439764062
C        0.5959077545   -0.2702016625   -1.0407364541
H        4.0831675613   -2.5295574733   -2.3639070576
H        4.1117547673   -0.9398164274   -3.1500979335
H        2.5665332026   -1.6908753347   -2.7438129490
H        3.1268133054   -1.5127109814   -0.2904772691
H        4.6646756554   -0.7764155851   -0.6843945766
H        3.6803779621    1.3542350148   -1.0655588691
H        0.5536739442    2.3581077859   -2.0400022383
H        0.5333221142    2.4452227717   -0.2818897264
H        1.9912198347    2.9297444630   -1.1710986624
H       -0.1327976972   -0.0550974078   -0.2487622542
H        0.0368893604   -0.2787750427   -1.9857166194
H        0.9876924592   -1.2757968180   -0.8752924528
18   
torsion grid (90,)
C        3.7239480701   -1.5403822231   -2.4279115771
C        3.5385359692   -0.9202477419   -1.0300612299
C        2.9248685679    0.4586832276   -1.0867418177
C        1.6170872807    0.7684267670   -1.0549965564
C        1.1481321277    2.2002232962   -1.1661487820
C        0.5090603477   -0.2480561726   -0.9148346859
H        4.2094727081   -2.5211803015   -2.3658877888
H        4.3407326970   -0.8967515611   -3.0648246053
H        2.7565230681   -1.6664411867   -2.9251726764
H        2.9304928309   -1.5927648993   -0.4160366159
H        4.5144863806   -0.8562195415   -0.5340646424
H        3.6313555319    1.2796386324   -1.2191796971
H        0.4859110214    2.3309135109   -2.0322914846
H        0.5676949782    2.4935995815   -0.2813722104
H        1.9855818905    2.8960138925   -1.2697538424
H       -0.1103467368   -0.0283037974   -0.0355713993
H       -0.1591394081   -0.2074617281   -1.7848879996
H        0.8750106205   -1.2724752286   -0.8239400412
18   
torsion grid (105,)
C        3.8762398536   -1.4697891173   -2.4293677653
C        3.4594273899   -0.8852319240   -1.0667933562
C        2.9001183783    0.5092943103   -1.1908097128
C        1.6161406605    0.8997048228   -1.1092331683
C        1.2309077881    2.3499130065   -1.2908510259
C        0.4529505945   -0.0253777395   -0.8405700872
H        4.3262620387   -2.4623889642   -2.3137056730
H        4.6082219322   -0.8242904221   -2.9277121253
H        3.0094857013   -1.5602651833   -3.0924818649
H        2.7419668937   -1.5580226249   -0.5880329775
H        4.3379496817   -0.8577240923   -0.4088809570
H        3.6423050727    1.2792685860   -1.4109683631
H        0.5325776233    2.4689274811   -2.1298692728
H        0.7176401549    2.7346105061   -0.3995933986
H        2.1026085763    2.9824851959   -1.4808880616
H       -0.0774047055    0.2752964311    0.0723693138
H       -0.2771654970    0.0320554443   -1.6582531905
H        0.7482772117   -1.0702323952   -0.7302458164
18   
torsion grid (120,)
C        4.1250460662   -1.5421800350   -2.4701820156
C        3.4924300321   -1.0554870180   -1.1540730040
C        2.9367097889    0.3399811218   -1.2717298455
C        1.6711564148    0.7581517794   -1.0952372792
C        1.3048200752    2.2147350320   -1.2676660812
C        0.5110641243   -0.1330134365   -0.7196294318
H        4.5654199233   -2.5386007584   -2.3526210342
H        4.9183178010   -0.8622049740   -2.8009627032
H        3.3760200539   -1.5905373720   -3.2676800156
H        2.7233722365   -1.7643327566   -0.8350436638
H        4.2623242279   -1.0655440731   -0.3698409980
H        3.6759773233    1.0950384831   -1.5482695164
H        0.5445138509    2.3385161236   -2.0502198550
H        0.8728363019    2.6231340588   -0.3444188862
H        2.1721861110    2.8244651021   -1.5359950078
H        0.0775122490    0.1833352539    0.2380637704
H       -0.2901820176   -0.0532971383   -1.4656720987
H        0.7838821350   -1.1859701165   -0.6318564044
18   
torsion grid (135,)
C        4.2524465589   -1.5254949684   -2.4609578144
C        3.4161411889   -1.1046557519   -1.2410642171
C        2.8791620046    0.2981780833   -1.3735456799
C        1.6406204912    0.7507254505   -1.1119432083
C        1.2934183100    2.2107459948   -1.2940292002
C        0.4957060949   -0.1043134002   -0.6231741948
H        4.6614090087   -2.5335120638   -2.3316172218
H        5.0941603387   -0.8409397723   -2.6160737447
H        3.6462895967   -1.5182294165   -3.3732764363
H        2.6079523631   -1.8250628262   -1.0857128357
H        4.0519963349   -1.1611817276   -0.3456261080
H        3.6153979588    1.0307021175   -1.7119480479
H        0.4765381030    2.3328782531   -2.0176093112
H        0.9447257195    2.6524545431   -0.3510940983
H        2.1498998791    2.7927693629   -1.6458882619
H        0.1562122105    0.2377071926    0.3632816875
H       -0.3661820172   -0.0156279694   -1.2971361806
H        0.7507633588   -1.1620233791   -0.5384591289
18   
torsion grid (150,)
C        4.0567442257   -1.4469130610   -2.3281034186
C        3.0371559315   -1.0538873817   -1.2486044678
C        2.5476777003    0.3664822521   -1.4116461823
C        1.3497647364    0.8732277191   -1.0733050148
C        1.0321390835    2.3351056466   -1.2875141788
C        0.2294368986    0.0711627697   -0.4554264119
H        4.4139140537   -2.4719316621   -2.1820080929
H        4.9286943629   -0.7832801226   -2.3054119376
H        3.6155030162   -1.3812178518   -3.3287410398
H        2.2001440021   -1.7592738829   -1.2645694697
H        3.5096796489   -1.1660349807   -0.2619305502
H        3.2819529611    1.0571473103   -1.8313852913
H        0.1629952383    2.4557379737   -1.9477122415
H        0.7748343573    2.8249231197   -0.3389833731
H        1.8740050212    2.8741368172   -1.7312291853
H       -0.0106330527    0.4568595025    0.5441219450
H       -0.6873073034    0.1612449963   -1.0524787575
H        0.4656166307   -0.9895948933   -0.3532301386
18   
torsion grid (165,)
C        3.7223320012   -1.1983022737   -2.1271743266
C        2.5363148219   -0.8518804565   -1.2172577140
C        2.0868288887    0.5858399142   -1.3776025540
C        0.9318468630    1.1259852043   -0.9545386100
C        0.6182423214    2.5869181752   -1.1756119458
C       -0.1383111455    0.3474443027   -0.2277024902
H        4.0346565664   -2.2395082278   -1.9946139467
H        4.5858225260   -0.5599141558   -1.9080042181
H        3.4633975509   -1.0558718752   -3.1823522069
H        1.7072324819   -1.5373255243   -1.4284079419
H        2.8225753700   -1.0385883013   -0.1726696447
H        2.7985543530    1.2448970910   -1.8779767181
H       -0.3026618693    2.7071288781   -1.7615933023
H        0.4510754580    3.1028721681   -0.2207933047
H        1.4266590799    3.1010931894   -1.7031962892
H       -0.3147477559    0.7749150581    0.7680766280
H       -1.0940222405    0.4046570684   -0.7650150742
H        0.1158165335   -0.7063290842   -0.0976667121
18   
torsion grid (180,)
C        3.5659887090   -0.9939035023   -1.8702812142
C        2.2383285247   -0.6999476034   -1.1606519860
C        1.8178196260    0.7505973557   -1.2969644350
C        0.7099324765    1.3157616941   -0.7898867607
C        0.4029194205    2.7796891247   -0.9972992404
C       -0.3119545254    0.5538995294    0.0192760929
H        3.8517998315   -2.0453294992   -1.7611265805
H        4.3761838835   -0.3816186945   -1.4582978694
H        3.4961759237   -0.7748632648   -2.9418182721
H        1.4597833220   -1.3580145289   -1.5682934257
H        2.3311465577   -0.9673890198   -0.0998908392
H        2.4955751050    1.3869275664   -1.8683943132
H       -0.5573602169    2.9113600698   -1.5134471975
H        0.3160066131    3.3038658846   -0.0362826655
H        1.1774503610    3.2776673432   -1.5875740338
H       -0.4232905153    0.9962391833    1.0179790097
H       -1.3000550210    0.6061208092   -0.4565206666
H       -0.0534971814   -0.4995527631    0.1443350513
