22   
torsion grid (-165,)
C        0.6141860720   -0.2082841938    0.7488078353
C        2.8314887574    1.0200194950    1.0010877933
C       -1.6065667252    3.0814921183   -0.1305806341
C       -2.3974211689    3.5201096263    2.2507991518
C        1.3798371609    0.9065613988    1.4593831935
C       -1.2014078971    3.3348337691    1.3205169167
O        0.8139910745    2.1957488016    1.1842586819
O       -0.4856897368    2.2207842313    1.8723500657
H       -0.4330104249   -0.2112948912    1.0595014938
H        0.6566659505   -0.0680835986   -0.3367925242
H        1.0506688646   -1.1837653342    0.9902785746
H        3.3476957846    1.8223117590    1.5356203486
H        2.8825345346    1.2268632221   -0.0729653516
H        3.3539215355    0.0780800892    1.1940754954
H       -0.7246088549    2.8914099083   -0.7463558614
H       -2.2718025560    2.2135471612   -0.1947812460
H       -2.1322785103    3.9527032395   -0.5367912074
H       -2.0682939333    3.7056587238    3.2770127936
H       -3.0339004104    2.6291396085    2.2439626795
H       -2.9967393990    4.3722021004    1.9158572133
H        1.3456680639    0.7509178348    2.5459597787
H       -0.5472298675    4.2150102758    1.3786679094
22   
torsion grid (-150,)
C        0.5463397376   -0.0523818781    0.6375485105
C        2.8324861503    0.9981132901    1.0335671655
C       -1.5702687943    2.8887267605   -0.0775661249
C       -2.3861681926    3.5563262045    2.2409355458
C        1.3706776871    0.9288832761    1.4683266102
C       -1.1806647761    3.3260427075    1.3329565907
O        0.8946887955    2.2771338974    1.3367862144
O       -0.4079561537    2.3245374664    2.0123261379
H       -0.5020858719   -0.0267088995    0.9429140708
H        0.6080105793    0.1985141052   -0.4268351485
H        0.9211867186   -1.0726349296    0.7748679266
H        3.3909228838    1.7025529113    1.6561380421
H        2.9101918337    1.3179649511   -0.0108059401
H        3.2923751557    0.0093343936    1.1244902110
H       -0.6793068363    2.6790527038   -0.6736593335
H       -2.1896753814    1.9860632210   -0.0429422314
H       -2.1404194532    3.6807575367   -0.5754602002
H       -2.0679514754    3.8763293610    3.2369362886
H       -2.9753535796    2.6387673981    2.3409597911
H       -3.0288313967    4.3315179079    1.8125546142
H        1.3139951775    0.6566486673    2.5306369004
H       -0.5744844934    4.2404242931    1.2851974589
22   
torsion grid (-135,)
C        1.6479876391    0.4755623637   -0.6487512870
C        2.2642943796    1.0314627904    1.7584423979
C       -2.2975073868    2.0807850528    0.7960157893
C       -1.8991475531    3.8702653729    2.5649465753
C        1.1520022803    0.9482386881    0.7154691594
C       -1.3730520895    3.1834385038    1.3076241736
O        0.5720295956    2.2376281762    0.4569934920
O       -0.0876243464    2.6667379469    1.6923586434
H        0.8254991084    0.4215886504   -1.3679591136
H        2.4085928006    1.1586994157   -1.0399973636
H        2.0944584751   -0.5190955662   -0.5546259334
H        1.8789911134    1.4275304698    2.7008352795
H        3.0675408907    1.6877243237    1.4071483628
H        2.6829306243    0.0364152604    1.9457422440
H       -1.8533177321    1.5790944953   -0.0673656008
H       -2.4814005227    1.3384944850    1.5803520145
H       -3.2598404537    2.5038095103    0.4873290187
H       -1.2114082742    4.6528801695    2.8970232741
H       -2.0233773438    3.1471463023    3.3777527838
H       -2.8729161277    4.3247410006    2.3580925747
H        0.3544365376    0.2835155340    1.0738785296
H       -1.2114633003    3.9293023994    0.5185680862
22   
torsion grid (-120,)
C        2.0705177518    1.6137154541   -0.8093518507
C        1.9236361079    0.2515583563    1.3368784061
C       -2.6328724407    1.9159849877    2.4134402406
C       -1.5080078962    4.0582219454    1.6204977568
C        1.1781198645    1.1197709912    0.3264693715
C       -1.5794577947    2.5380388025    1.5003067166
O        0.6732898088    2.3226925941    0.9346428889
O       -0.3446289254    1.9177862924    1.9030646788
H        1.5018201519    2.2215290328   -1.5190285542
H        2.8945674546    2.2172948855   -0.4156581297
H        2.4959165595    0.7587592541   -1.3438616087
H        1.2671670684   -0.0211516247    2.1663419593
H        2.7877527040    0.7912390363    1.7385316621
H        2.2781822455   -0.6679535014    0.8580203290
H       -2.6624072116    0.8290248191    2.2944997456
H       -2.4169161655    2.1460927570    3.4616618633
H       -3.6196670184    2.3211568266    2.1691327933
H       -0.6981413534    4.4541317636    1.0034880194
H       -1.3289183049    4.3499925773    2.6607228094
H       -2.4496801232    4.5094674756    1.2886200561
H        0.3244762480    0.5637070839   -0.0855483686
H       -1.7770404168    2.2549055356    0.4570023154
22   
torsion grid (-105,)
C        2.0670483032    1.6885319604   -0.7539831497
C        1.8350764193    0.1767150997    1.2832561987
C       -2.5545945432    1.9008608626    2.4616456252
C       -1.5447452297    4.0330758593    1.5006446845
C        1.1572855131    1.1914152719    0.3665003705
C       -1.5069825605    2.5076054007    1.5317809913
O        0.7871370669    2.3851058820    1.0837111723
O       -0.2502062981    2.0216726696    2.0423361607
H        1.5439554549    2.4037656991   -1.3952804659
H        2.9543723891    2.1772195324   -0.3390741412
H        2.3952506841    0.8436248412   -1.3671928111
H        1.1719669056   -0.0965920027    2.1072904052
H        2.7557830192    0.5970539608    1.7013018533
H        2.0881187868   -0.7311537581    0.7244354288
H       -2.5030176761    0.8083142690    2.4501013550
H       -2.4011029469    2.2457133335    3.4891777140
H       -3.5554530861    2.2072738295    2.1422662651
H       -0.7362345604    4.4228211468    0.8778690649
H       -1.4315771822    4.4371768796    2.5120980589
H       -2.4990457536    4.3815590796    1.0902693154
H        0.2461439272    0.7536958332   -0.0650596551
H       -1.6414703180    2.1105096950    0.5157786592
22   
torsion grid (-90,)
C        2.1043172129    1.7851569270   -0.6815851004
C        1.7002861369    0.1174594868    1.2037349599
C       -2.4713043338    1.9007399617    2.5563634387
C       -1.5741934427    3.9609980941    1.3524954907
C        1.1383757476    1.2770300889    0.3855811122
C       -1.4454402247    2.4559903804    1.5717905732
O        0.8883086900    2.4313672328    1.2127858493
O       -0.1732473794    2.1174669920    2.1601772757
H        1.6603554696    2.6054253129   -1.2529307691
H        3.0301114219    2.1435234932   -0.2205258143
H        2.3548793424    0.9733533302   -1.3713715051
H        1.0062518074   -0.1579631559    2.0013311642
H        2.6558945489    0.4002662966    1.6574418337
H        1.8619661013   -0.7577488641    0.5647166737
H       -2.3523774165    0.8202365888    2.6778228842
H       -2.3577804972    2.3755028332    3.5360598061
H       -3.4828258208    2.1027713183    2.1908257397
H       -0.7738167329    4.3214491737    0.7019813174
H       -1.5098793164    4.4912317842    2.3083857981
H       -2.5364936768    4.1978800063    0.8852261010
H        0.1975185966    0.9729127794   -0.0925186077
H       -1.5431979198    1.9309152846    0.6120848789
22   
torsion grid (-75,)
C        2.2693965200    1.9341073841   -0.5363611346
C        1.4322333840    0.0943856077    1.0153973717
C       -2.3632212349    1.9692883603    2.7888272125
C       -1.6149213927    3.7380353399    1.1140241898
C        1.1296584168    1.4321846189    0.3470193388
C       -1.4020379821    2.3285873887    1.6581981132
O        0.9598119358    2.4903418546    1.3112861612
O       -0.1011995162    2.1738934436    2.2600645192
H        2.0204213540    2.9012318805   -0.9825743482
H        3.1868065567    2.0469821607    0.0494185885
H        2.4562322833    1.2168479381   -1.3414948098
H        0.6173630295   -0.2010011717    1.6804767356
H        2.3499155009    0.1655015826    1.6081905427
H        1.5631906068   -0.6852577406    0.2570811700
H       -2.1675235145    0.9596602104    3.1613551488
H       -2.2573581785    2.6734163541    3.6198012271
H       -3.3943891801    2.0124443631    2.4249073048
H       -0.8733098193    3.9749653152    0.3475551485
H       -1.5223947651    4.4736305311    1.9195923760
H       -2.6133121977    3.8249639939    0.6716497103
H        0.2204240613    1.3471862398   -0.2636591678
H       -1.5180775535    1.5945696901    0.8491177020
22   
torsion grid (-60,)
C        2.3235033039    1.9940870909   -0.4595649067
C        1.2696857830    0.1202395055    0.9063612637
C       -2.3001181597    2.0029438636    2.8743409636
C       -1.6170938697    3.5805979681    0.9949587536
C        1.1184167191    1.5380396097    0.3607989842
C       -1.3388160377    2.2642538545    1.7164004396
O        1.0459665277    2.5166102870    1.4135811950
O       -0.0474012189    2.2593832559    2.3515570608
H        2.1852851488    3.0184161646   -0.8170997107
H        3.2351847615    1.9561325743    0.1442096137
H        2.4501180423    1.3366675273   -1.3252876141
H        0.4195814236   -0.1525897212    1.5365565471
H        2.1784288379    0.0436273269    1.5116939141
H        1.3343175733   -0.5976345780    0.0815334017
H       -2.0580136918    1.0616064135    3.3757929506
H       -2.2455881820    2.8124820126    3.6083862070
H       -3.3252507014    1.9428618402    2.4959229193
H       -0.8770190538    3.7655410390    0.2124339050
H       -1.5773799108    4.4146787800    1.7026613275
H       -2.6104800864    3.5567413323    0.5340079766
H        0.2216252496    1.6054013123   -0.2696229530
H       -1.4072441439    1.4258778863    1.0102508615
22   
torsion grid (-45,)
C        2.3415576850    2.0137421882   -0.4205952870
C        1.1955103263    0.1259815649    0.8444871415
C       -2.2688104919    2.0227134975    2.9037213251
C       -1.6302262561    3.5051270772    0.9359413493
C        1.1186960434    1.5831877112    0.3890379192
C       -1.2966421532    2.2530201455    1.7469495152
O        1.1274841323    2.4928308763    1.5004975995
O       -0.0260232189    2.3653033713    2.4070936863
H        2.2519883098    3.0573971594   -0.7342655791
H        3.2533590804    1.9055332966    0.1742604875
H        2.4306988854    1.3856320490   -1.3124634537
H        0.3626207747   -0.1275081603    1.5054396222
H        2.1255765648   -0.0474785138    1.3948100527
H        1.1676400363   -0.5467039567   -0.0197566400
H       -2.0049923571    1.1182450437    3.4586667472
H       -2.2530135302    2.8718989462    3.5933435345
H       -3.2847200706    1.9105057636    2.5122693431
H       -0.8648998512    3.7046497668    0.1814307506
H       -1.6864168566    4.3766181462    1.5957236904
H       -2.5934496243    3.3861507695    0.4277629178
H        0.2245385993    1.7425205726   -0.2257656642
H       -1.3127677131    1.3665980300    1.1012840422
22   
torsion grid (-30,)
C        2.3667428809    2.0244437759   -0.3833738916
C        1.1552249433    0.1161571052    0.7812264494
C       -2.2460268475    2.0503213299    2.9329171699
C       -1.6663039863    3.4539595756    0.8934690445
C        1.1303877903    1.6012963019    0.4113619059
C       -1.2762338014    2.2605523999    1.7690714659
O        1.1894872052    2.4409295157    1.5732201999
O       -0.0198266163    2.4716949468    2.4288073502
H        2.3072939382    3.0802857633   -0.6603322194
H        3.2740687381    1.8697208811    0.2080820040
H        2.4401651685    1.4231343659   -1.2950754333
H        0.3288454243   -0.1434469378    1.4481203374
H        2.0892736973   -0.1251657176    1.2982812592
H        1.0808280201   -0.5063974032   -0.1174018257
H       -1.9613435304    1.1743857080    3.5217588992
H       -2.2517796954    2.9251772343    3.5898749370
H       -3.2584748922    1.9015823094    2.5443439728
H       -0.9019649754    3.6640096019    0.1406678748
H       -1.7806145131    4.3500549976    1.5115107199
H       -2.6134467346    3.2605503798    0.3775667171
H        0.2424801321    1.8309222049   -0.1874886161
H       -1.2510740312    1.3417970069    1.1732647791
22   
torsion grid (-15,)
C        2.4003688875    2.0327544779   -0.3422436659
C        1.1279990076    0.1026591727    0.7114068780
C       -2.2249652929    2.0856917954    2.9675124270
C       -1.7148419734    3.4069415101    0.8583787351
C        1.1475909285    1.6078771415    0.4265834743
C       -1.2689461491    2.2735339528    1.7877622347
O        1.2289343148    2.3763272520    1.6361633953
O       -0.0170823675    2.5699969532    2.4242863393
H        2.3680311148    3.1001296115   -0.5752561722
H        3.2983419762    1.8327655088    0.2500746976
H        2.4695393035    1.4662883451   -1.2765211787
H        0.2925365867   -0.1738119995    1.3599581849
H        2.0528432573   -0.1934774032    1.2165053334
H        1.0416595620   -0.4665145581   -0.2211690767
H       -1.9127254829    1.2418894793    3.5881042287
H       -2.2462991848    2.9859045404    3.5890863502
H       -3.2374812406    1.8986506257    2.5955314662
H       -0.9683944485    3.6123141481    0.0865687889
H       -1.8590700653    4.3266024567    1.4342087365
H       -2.6592165206    3.1528220055    0.3637161174
H        0.2701568587    1.8976254934   -0.1593211104
H       -1.2112707576    1.3289948363    1.2385369165
22   
torsion grid (0,)
C        1.5845599916    1.8789951106   -0.4036241291
C        2.2019075118    0.2122034228    1.4092994280
C       -2.1327267954    1.5128174223    1.8412029053
C       -2.0521841839    3.9960388550    1.3184056833
C        1.1660570470    1.2263302329    0.9183925341
C       -1.2782656168    2.6756261914    1.3249094150
O        1.1018435344    2.1881814090    1.9845708330
O       -0.1652143099    2.9394416384    2.1952869694
H        0.8918502032    2.6697584053   -0.7033644005
H        2.5770261752    2.3287988599   -0.2990124874
H        1.6232766682    1.1342841589   -1.2069263981
H        1.8576624004   -0.2786652576    2.3230780108
H        3.1529144821    0.7108457001    1.6200452381
H        2.3742084150   -0.5466402886    0.6389943886
H       -1.5512895565    0.5918437844    1.9347669357
H       -2.5325145540    1.7553211678    2.8309595719
H       -2.9731157018    1.3206054179    1.1643092129
H       -1.4416894389    4.7984608413    0.8966681762
H       -2.3372456056    4.2754076649    2.3373091083
H       -2.9645401016    3.8899999689    0.7223604962
H        0.2079330757    0.7124860909    0.8046019731
H       -0.9327453254    2.4738245489    0.3076396351
22   
torsion grid (15,)
C        1.6056853579    1.9350508019   -0.3627012625
C        2.1664669013    0.1763717277    1.3822763831
C       -2.0979908371    1.5225018469    1.9041043604
C       -2.0604913188    3.9803799899    1.2639460917
C        1.1482876865    1.2170079118    0.9110776869
C       -1.2750643797    2.6677349082    1.3053205479
O        1.0592837391    2.1165346071    2.0257506327
O       -0.1400774477    2.9905746853    2.1221090886
H        0.9317581868    2.7536820840   -0.6286695444
H        2.6030005265    2.3606921802   -0.2132185750
H        1.6470486460    1.2367088257   -1.2063664439
H        1.7977957554   -0.3541584100    2.2638951348
H        3.1149834250    0.6584666221    1.6373407116
H        2.3508912466   -0.5477410931    0.5821984344
H       -1.4962173824    0.6195450955    2.0368169262
H       -2.4821020094    1.8134560342    2.8869357930
H       -2.9471229202    1.2768650320    1.2561841951
H       -1.4704456448    4.7696327489    0.7911265688
H       -2.3223415398    4.3007280286    2.2768469666
H       -2.9857010381    3.8387896446    0.6961297705
H        0.1927982636    0.7112266806    0.7428164519
H       -0.9627369023    2.4219153929    0.2859531817
22   
torsion grid (30,)
C        0.9541446792    0.2264734683    2.0569032333
C        2.3878667465    0.9112820858    0.0716815483
C       -0.8163204747    3.9674735039    0.6480286217
C       -2.7457944110    2.7033345326    1.7179399177
C        1.1316855184    1.2049735021    0.8932570719
C       -1.2804492962    2.6540696598    1.2825439268
O        0.0774866734    1.0819307512   -0.0721011324
O       -1.2585000450    1.5708402023    0.3420525703
H       -0.0053538635    0.3733960817    2.5597166982
H        0.9826357721   -0.8034492679    1.6874750801
H        1.7531202120    0.3564173102    2.7954116428
H        2.5058485660    1.6431039927   -0.7317856809
H        2.3310434509   -0.0872532623   -0.3718249009
H        3.2684845306    0.9531397021    0.7204681083
H        0.1918547201    3.8774341177    0.2350869722
H       -1.4880399587    4.2457294224   -0.1701378516
H       -0.8137154583    4.7742449308    1.3894833360
H       -3.0405088394    1.7649842400    2.1951033925
H       -3.3964159372    2.8751608856    0.8552885890
H       -2.8895816589    3.5225261207    2.4295679015
H        1.1977767114    2.2330025747    1.2654381587
H       -0.6695593233    2.4171507907    2.1602758965
22   
torsion grid (45,)
C        0.9180170443    0.1741979982    2.0158597539
C        2.4088338460    0.9404662170    0.1007103368
C       -0.8401098079    3.9497297306    0.5784461353
C       -2.7291243944    2.7181334882    1.7584007750
C        1.1469624536    1.2138066581    0.9187809345
C       -1.2705382319    2.6746708226    1.3035257105
O        0.1057598308    1.1869300955   -0.0701805838
O       -1.2332556237    1.5283811971    0.4389448051
H       -0.0400378636    0.3317354613    2.5179882890
H        0.9096604727   -0.8318191947    1.5847837634
H        1.7142983458    0.2285647976    2.7663130828
H        2.5450617895    1.7039670218   -0.6700918289
H        2.3471264136   -0.0379884922   -0.3848440086
H        3.2822790462    0.9477908715    0.7602080315
H        0.1709800883    3.8541683855    0.1742363337
H       -1.5174901967    4.1544048193   -0.2565573729
H       -0.8586944623    4.8041678633    1.2638583938
H       -3.0020558568    1.7948832482    2.2768069068
H       -3.3953138748    2.8459785112    0.9000350790
H       -2.8753506654    3.5606261514    2.4415708751
H        1.2300776500    2.2160449101    1.3563863320
H       -0.6393776891    2.5071247835    2.1846913561
22   
torsion grid (60,)
C        0.9010360492    0.0901071256    1.9711533094
C        2.4355999742    0.9605888970    0.1340421806
C       -0.8916337217    3.9537656554    0.4966704803
C       -2.7171610087    2.7432704356    1.7965761624
C        1.1753478053    1.2027692263    0.9624847816
C       -1.2656124756    2.7246357474    1.3213253477
O        0.1393200269    1.2972679807   -0.0319654690
O       -1.1860965496    1.5123715965    0.5497636952
H       -0.0371074464    0.2635085366    2.5041424109
H        0.8261374409   -0.8741181651    1.4585410601
H        1.7121609627    0.0366334955    2.7053730978
H        2.5879136332    1.7684570718   -0.5873004998
H        2.3598427184    0.0156787679   -0.4123584148
H        3.3072248978    0.9135875804    0.7941701773
H        0.1325966600    3.8809632512    0.1226241951
H       -1.5607441359    4.0485527077   -0.3643859321
H       -0.9739489997    4.8589152236    1.1080542732
H       -2.9510214887    1.8401085522    2.3673593791
H       -3.3994994805    2.8022807932    0.9433002497
H       -2.8837826805    3.6141283285    2.4380991406
H        1.2788663446    2.1649295706    1.4818442687
H       -0.6117302115    2.6475629666    2.2003592060
22   
torsion grid (75,)
C        0.8880195018   -0.0892499470    1.8895122547
C        2.4811779615    1.0021522552    0.2269585936
C       -1.0079274849    3.9820140416    0.3395665863
C       -2.6707119642    2.8092471538    1.8735689256
C        1.2021546425    1.1445238624    1.0486138372
C       -1.2516312340    2.8305450260    1.3105023340
O        0.1883983968    1.3911990680    0.0537239065
O       -1.1253614030    1.5467666295    0.6668216038
H       -0.0612712664    0.0310710816    2.4167391618
H        0.8154170136   -0.9753199410    1.2505982638
H        1.6791817908   -0.2532070118    2.6292532422
H        2.6614675327    1.8988387932   -0.3729355273
H        2.4105268419    0.1418682205   -0.4456775024
H        3.3348805898    0.8526966195    0.8951382763
H       -0.0015796926    3.9283693688   -0.0823156778
H       -1.7276732285    3.9421577209   -0.4844356282
H       -1.1183816848    4.9414364945    0.8566204705
H       -2.8092461132    1.9613551547    2.5505559750
H       -3.4028609595    2.7313909878    1.0639914182
H       -2.8619378357    3.7328633500    2.4285238845
H        1.2959037545    2.0252517111    1.6985263767
H       -0.5408368447    2.8899947058    2.1460223254
22   
torsion grid (90,)
C        0.8581907758   -0.3516047485    1.6956844280
C        2.5408002082    1.1099621657    0.4585092364
C       -1.2185642982    3.9633632254    0.0894205597
C       -2.5179777762    2.9495950733    2.0340938320
C        1.1891253331    1.0404438051    1.1643542776
C       -1.2112275835    2.9666144300    1.2453040652
O        0.2444255407    1.4576427553    0.1579026040
O       -1.0684713494    1.6122764278    0.7711240291
H       -0.1487289877   -0.3687013387    2.1193652263
H        0.9072368763   -1.0887339150    0.8874398967
H        1.5699533651   -0.6410931108    2.4767372949
H        2.7461408671    2.1243134415    0.1045129772
H        2.5595883960    0.4313777833   -0.4001291919
H        3.3354418545    0.8128248048    1.1497910736
H       -0.2963815765    3.8814367579   -0.4907106813
H       -2.0658247390    3.7677110312   -0.5760823348
H       -1.3015090325    4.9876785509    0.4693565517
H       -2.4680170712    2.2335857667    2.8594550733
H       -3.3539902621    2.6731833653    1.3838866930
H       -2.7155982992    3.9444022285    2.4450942468
H        1.1730215295    1.7663136270    1.9884420756
H       -0.3799254561    3.1933732183    1.9263211673
22   
torsion grid (105,)
C        0.8452868480   -0.4544992213    1.5638545098
C        2.5931871833    1.1144655345    0.5779710897
C       -1.3360783111    3.9138544048   -0.0195395518
C       -2.4740040664    3.0576963156    2.0925423855
C        1.2202402587    0.9874758964    1.2328994012
C       -1.2091708854    3.0583460100    1.2380030893
O        0.3109997211    1.5620097600    0.2737510033
O       -0.9956621562    1.6707899454    0.9126178938
H       -0.1700633875   -0.5033404356    1.9639627073
H        0.8960324041   -1.0769968714    0.6643698526
H        1.5338426541   -0.8642934165    2.3111899316
H        2.8305946749    2.1607628096    0.3649521766
H        2.6235454878    0.5525587132   -0.3609859803
H        3.3607707965    0.7104173553    1.2451705480
H       -0.4363077500    3.8276312126   -0.6330431264
H       -2.1963989946    3.5902942584   -0.6147775550
H       -1.4741092509    4.9669841203    0.2495625053
H       -2.3419216492    2.4431792332    2.9877520817
H       -3.3217166375    2.6644550947    1.5224142519
H       -2.7126102610    4.0798996998    2.4019968006
H        1.1885795184    1.5997299803    2.1451179666
H       -0.3573278825    3.4045449459    1.8400911191
22   
torsion grid (120,)
C        0.8330853875   -0.5023995779    1.4465884653
C        2.6491278041    1.0957849908    0.6518446138
C       -1.4224787131    3.8465294454   -0.0843231943
C       -2.4708899995    3.1453878539    2.1277021245
C        1.2706429836    0.9519195747    1.2915860616
C       -1.2189790224    3.1413406401    1.2542668347
O        0.3903276616    1.6772740057    0.4135484312
O       -0.9114654726    1.7466187846    1.0747382959
H       -0.1816606357   -0.5570269263    1.8473981728
H        0.8531333476   -1.0112613322    0.4770867496
H        1.5058626385   -1.0300653577    2.1317438094
H        2.9323953456    2.1486416655    0.5637303680
H        2.6579587725    0.6478256538   -0.3469661075
H        3.3966057698    0.5829172568    1.2648959733
H       -0.5249963301    3.7641240909   -0.7016373967
H       -2.2615147213    3.3983337379   -0.6269234006
H       -1.6376663219    4.9089277754    0.0753713718
H       -2.2862557202    2.6393143613    3.0797061042
H       -3.2966868302    2.6386536127    1.6181450720
H       -2.7750243060    4.1763400539    2.3331977882
H        1.2603444849    1.4513157986    2.2704530010
H       -0.3841578081    3.6054692373    1.7977199619
22   
torsion grid (135,)
C        0.8099520526   -0.5144178505    1.3244944486
C        2.7010651178    1.0778641067    0.7170847724
C       -1.4902978395    3.7522612356   -0.1301558269
C       -2.4703728559    3.2246070211    2.1593093303
C        1.3167269440    0.9259709363    1.3426752150
C       -1.2269339587    3.2118461578    1.2735757601
O        0.4749260358    1.7924844746    0.5639081812
O       -0.8239808109    1.8325019395    1.2420972564
H       -0.2043648024   -0.5706675406    1.7261687755
H        0.8013702399   -0.9022433584    0.3003345832
H        1.4599898755   -1.1520586295    1.9338388195
H        3.0349073962    2.1188949002    0.7520973925
H        2.6899520514    0.7499757085   -0.3273311565
H        3.4219238788    0.4614717598    1.2629764893
H       -0.5931993893    3.6715309811   -0.7482513377
H       -2.2965835731    3.1878437435   -0.6104910865
H       -1.7836133181    4.8067628507   -0.0808815392
H       -2.2448468447    2.8372461053    3.1570624037
H       -3.2636989521    2.6124410998    1.7184856293
H       -2.8419550410    4.2491580429    2.2582870087
H        1.3291834139    1.3041839561    2.3740748689
H       -0.4224413059    3.7883077048    1.7505131126
22   
torsion grid (150,)
C        0.7738438354   -0.4930414451    1.1909126176
C        2.7464291290    1.0643488771    0.7866349684
C       -1.5434667868    3.6265579319   -0.1614059641
C       -2.4610190836    3.3020635328    2.1907842628
C        1.3512232667    0.9075285569    1.3863298987
C       -1.2290306041    3.2681504386    1.2897402030
O        0.5613325673    1.9035540282    0.7191918967
O       -0.7362045556    1.9249795790    1.4084062030
H       -0.2448357272   -0.5483843737    1.5813274311
H        0.7537474088   -0.7515514170    0.1268151940
H        1.3876124653   -1.2318471457    1.7180219671
H        3.1311140381    2.0752913048    0.9489654058
H        2.7280629850    0.8663974458   -0.2899367939
H        3.4311586518    0.3509660414    1.2554185635
H       -0.6503501627    3.5351704200   -0.7836483648
H       -2.3154253304    2.9594831566   -0.5596845482
H       -1.9066086306    4.6582429465   -0.2257804656
H       -2.1994869947    3.0462802581    3.2215675402
H       -3.2175756437    2.5944524656    1.8366125168
H       -2.8975513205    4.3054858163    2.1802484210
H        1.3737805181    1.1564679711    2.4559194872
H       -0.4590417111    3.9453689559    1.6834326600
22   
torsion grid (165,)
C        0.7273260865   -0.4357148977    1.0478228222
C        2.7842788055    1.0523309294    0.8591029846
C       -1.5813606543    3.4705894705   -0.1741654406
C       -2.4442818333    3.3778706959    2.2191001799
C        1.3729968715    0.8976870190    1.4206697708
C       -1.2252866206    3.3078115489    1.3025136086
O        0.6475813694    2.0086890655    0.8760114467
O       -0.6497455158    2.0216684001    1.5704578150
H       -0.2990921211   -0.4842611208    1.4182056238
H        0.7115015097   -0.5600329534   -0.0403004161
H        1.2936818458   -1.2653002168    1.4852717504
H        3.2177577802    2.0135733723    1.1494302291
H        2.7738683654    0.9896024287   -0.2338922135
H        3.4231402354    0.2510734624    1.2429250941
H       -0.6932447814    3.3575184019   -0.7998967337
H       -2.3171618005    2.7165674994   -0.4737736970
H       -2.0075896678    4.4639255084   -0.3528958953
H       -2.1529085166    3.2636790621    3.2670709749
H       -3.1618103115    2.5899413543    1.9680983386
H       -2.9407301139    4.3455498685    2.0982160590
H        1.3916312673    1.0117242881    2.5129194411
H       -0.4928438855    4.0714721583    1.5969813578
22   
torsion grid (180,)
C        0.6747160413   -0.3415970302    0.8947678061
C        2.8138013836    1.0398496689    0.9351950566
C       -1.6067535793    3.2853184250   -0.1651277573
C       -2.4199718556    3.4532598992    2.2423994327
C        1.3815428748    0.8962610505    1.4443763097
C       -1.2162900855    3.3297376030    1.3111958039
O        0.7317762381    2.1055685899    1.0308950557
O       -0.5665232741    2.1204300834    1.7246769507
H       -0.3627107565   -0.3746552940    1.2347868222
H        0.6830873609   -0.3299915448   -0.2005720235
H        1.1817185632   -1.2505369960    1.2368931881
H        3.2895483957    1.9312470852    1.3535682386
H        2.8296319328    1.1154454541   -0.1569908791
H        3.3986283741    0.1621488794    1.2268942798
H       -0.7245902920    3.1369392293   -0.7918107864
H       -2.3079704153    2.4640619092   -0.3489937955
H       -2.0872624753    4.2252193327   -0.4583352243
H       -2.1026138987    3.4886718696    3.2883395160
H       -3.0981492608    2.6036563087    2.1116912197
H       -2.9709511398    4.3705146603    2.0131936637
H        1.3787743579    0.8729037153    2.5424698958
H       -0.5217301752    4.1615124463    1.4903603270
