30   
torsion grid (-165,)
C        0.8707065544   -0.6005065263    0.2543568663
C       -0.1933760477   -2.8339022039   -0.1140810242
C        0.8698728629   -0.8940786064    1.7567082217
C       -0.1800486611   -3.0433304617    1.4015842632
C        0.9245424679   -1.8809100904   -0.6149697648
C        2.2976784513   -2.5717843492   -0.5247940816
C        1.2430604842   -0.1802599132   -4.1814916462
C        1.6872666602   -0.6904738501   -2.8040365075
C        0.6020318556   -1.5009536225   -2.0834553743
N       -0.2713753033   -1.7507287442    2.0902863023
O        0.3087862125   -2.7193147356   -2.7923517150
H       -0.0477700121   -0.0482706594    0.0210271683
H        1.7164180883    0.0577962209    0.0234596123
H       -0.1123640741   -3.7976248534   -0.6226387839
H       -1.1655007602   -2.4074145765   -0.3893597521
H        1.8370327818   -1.3434635891    2.0490841537
H        0.7735013031    0.0472519065    2.3090575005
H       -1.0456170963   -3.6510936549    1.6878332604
H        0.7217380246   -3.6108142752    1.6966458437
H        2.3604170298   -3.3841434581   -1.2552232612
H        2.4702079298   -3.0006797214    0.4653295633
H        3.1157379982   -1.8705367911   -0.7194622227
H        2.0159707854    0.4483414830   -4.6352138281
H        0.3273373610    0.4185027044   -4.1086461755
H        1.0554036641   -1.0013920814   -4.8841755924
H        1.9629755272    0.1677928412   -2.1815764152
H        2.5834660760   -1.3090741883   -2.9152667436
H       -0.3153709789   -0.8892856812   -2.0553125893
H       -0.3005660952   -1.9019876501    3.0962188341
H        0.0341761426   -2.4829156976   -3.6908298203
30   
torsion grid (-150,)
C        0.7655155308   -0.5823744360    0.2813870580
C       -0.1562831854   -2.8572976992   -0.1207615171
C        0.8128997499   -0.8933105872    1.7787576368
C       -0.1165031617   -3.0970333257    1.3911660081
C        0.9124966064   -1.8419498320   -0.6092479664
C        2.3162205095   -2.4649101635   -0.5047387983
C        1.3202896668   -0.2297205514   -4.2110253149
C        1.7474162011   -0.8234087453   -2.8619865118
C        0.5826653616   -1.4387509214   -2.0774816987
N       -0.2659641890   -1.8277064210    2.1126661499
O        0.0287579120   -2.5824605170   -2.7535615702
H       -0.2025467432   -0.1134832588    0.0721604018
H        1.5445105312    0.1524626709    0.0398405304
H       -0.0356359515   -3.8073487530   -0.6469772157
H       -1.1497208238   -2.4752668964   -0.3800753358
H        1.8121700557   -1.2789668163    2.0525853412
H        0.6599010286    0.0318454063    2.3455943807
H       -0.9494774478   -3.7520606702    1.6700050825
H        0.8129733715   -3.6280773881    1.6664616120
H        2.4226191631   -3.2835127743   -1.2241126287
H        2.5026615583   -2.8769475495    0.4894757242
H        3.1040593743   -1.7310652736   -0.7021221626
H        2.1635155044    0.2595640092   -4.7090348993
H        0.5278443712    0.5174235959   -4.0849688576
H        0.9528997765   -0.9982184247   -4.9023923496
H        2.1991203784   -0.0311960212   -2.2532947396
H        2.5186640692   -1.5831073797   -3.0238192780
H       -0.2118729561   -0.6767236331   -2.0175951232
H       -0.2680035793   -2.0031889300    3.1150361869
H       -0.2048534508   -2.3084635391   -3.6532338529
30   
torsion grid (-135,)
C        0.6828099377   -0.5669500092    0.3352768956
C       -0.1084135703   -2.8726560630   -0.1413987285
C        0.7454706793   -0.9156615943    1.8238125929
C       -0.0504631014   -3.1605056043    1.3622280771
C        0.9065358585   -1.7869105021   -0.5950758062
C        2.3381657422   -2.3409962820   -0.4734282627
C        1.3851607353   -0.3441421309   -4.2792371015
C        1.7824209765   -0.9449610960   -2.9242991637
C        0.5761564933   -1.3361075920   -2.0624911154
N       -0.2721823382   -1.9264930701    2.1253777755
O       -0.2292186454   -2.3463448765   -2.6978501418
H       -0.3115234949   -0.1532491057    0.1346852131
H        1.4163436134    0.2203847176    0.1135372471
H        0.0589179003   -3.7981818357   -0.6991101021
H       -1.1204976022   -2.5372588029   -0.3844491826
H        1.7666259871   -1.2412007157    2.0944678935
H        0.5293566602   -0.0182078158    2.4143293772
H       -0.8461584662   -3.8693806678    1.6174099589
H        0.9061068006   -3.6489780655    1.6223597014
H        2.4910841885   -3.1716852323   -1.1701760267
H        2.5362525392   -2.7219982846    0.5303524076
H        3.0949003866   -1.5783359375   -0.6809966774
H        2.2673937802    0.0027277129   -4.8267084890
H        0.7126127325    0.5131585533   -4.1548657547
H        0.8858315309   -1.0770122575   -4.9245430222
H        2.3760057958   -0.2067361490   -2.3720054362
H        2.4238685707   -1.8171873657   -3.0852403375
H       -0.0513769354   -0.4349559306   -1.9734861501
H       -0.2637816144   -2.1343297269    3.1214606030
H       -0.4820659084   -2.0110990956   -3.5712299527
30   
torsion grid (-120,)
C        0.6157829387   -0.5497102072    0.3975434189
C       -0.0380621494   -2.8869973327   -0.1808494383
C        0.6576841447   -0.9510266223    1.8740168799
C        0.0184743348   -3.2247964696    1.3127033782
C        0.9092641896   -1.7219254929   -0.5747761629
C        2.3723539510   -2.1862801695   -0.4260927804
C        1.4127809919   -0.4908343544   -4.3506651344
C        1.7893572089   -1.1006082256   -2.9936283613
C        0.5936820878   -1.2127558629   -2.0370788964
N       -0.3012636122   -2.0343159697    2.1099498004
O       -0.4362146849   -2.0395834267   -2.6115738276
H       -0.3896501895   -0.1679367767    0.1858367745
H        1.3228404986    0.2717363957    0.2196713809
H        0.1977814062   -3.7787605890   -0.7704034404
H       -1.0654843496   -2.6103701514   -0.4243702444
H        1.6891905021   -1.2225657734    2.1641980604
H        0.3696519574   -0.0917046730    2.4901083598
H       -0.7318516152   -3.9935898241    1.5287917499
H        1.0009969253   -3.6562443168    1.5766894168
H        2.6020229961   -3.0022066790   -1.1181209680
H        2.5686816888   -2.5580045967    0.5811499354
H        3.0836886248   -1.3749633085   -0.6080161874
H        2.3036981159   -0.3282364668   -4.9656572998
H        0.9137657036    0.4787522960   -4.2293034411
H        0.7496034162   -1.1467931883   -4.9264496435
H        2.5556759873   -0.4711063607   -2.5284773129
H        2.2353498823   -2.0881752767   -3.1499944828
H        0.1820685472   -0.1967799722   -1.9334268143
H       -0.3076195594   -2.2761932815    3.0982924953
H       -0.7279107069   -1.6132781487   -3.4313609225
30   
torsion grid (-105,)
C        0.5609550052   -0.5302867500    0.4561010709
C        0.0560855866   -2.8946196489   -0.2414110611
C        0.5569458068   -0.9960812918    1.9148672360
C        0.0882073562   -3.2811290812    1.2411059549
C        0.9230098329   -1.6504885735   -0.5544994525
C        2.4155038391   -2.0073538748   -0.3784823160
C        1.4043906349   -0.6579578901   -4.4018984855
C        1.7485205001   -1.2805330430   -3.0421075359
C        0.6352679201   -1.0855532199   -1.9996137348
N       -0.3444757341   -2.1428880667    2.0609558374
O       -0.5773653201   -1.6882651319   -2.4915880057
H       -0.4447775688   -0.1621538341    0.2196898782
H        1.2556018352    0.3112916362    0.3400270741
H        0.3840082595   -3.7434546197   -0.8526009468
H       -0.9794196613   -2.6866297122   -0.5120191066
H        1.5882420446   -1.2224602602    2.2426557015
H        0.1921754917   -0.1835652819    2.5533796988
H       -0.6113808223   -4.1081237539    1.4059424524
H        1.0903252185   -3.6489693720    1.5277767794
H        2.7308075471   -2.7924989436   -1.0714528907
H        2.6141450002   -2.3735722341    0.6305039700
H        3.0626932980   -1.1373425193   -0.5313201930
H        2.2560745165   -0.7222525217   -5.0867265812
H        1.1433234219    0.4033186780   -4.3010406352
H        0.5679608867   -1.1717073501   -4.8886650427
H        2.6748580063   -0.8275212861   -2.6760221681
H        1.9414320097   -2.3513524223   -3.1711707219
H        0.4719665426   -0.0015959961   -1.8983283993
H       -0.3843911873   -2.4222531424    3.0385769538
H       -0.8743510344   -1.1692553181   -3.2539290387
30   
torsion grid (-90,)
C        0.9697879633   -0.6889118652    0.1521231163
C       -0.4309457122   -2.7926197827    0.0825519992
C        1.0927459747   -0.8717255764    1.6681056180
C       -0.2210430315   -2.9106222057    1.5955506968
C        0.7076211058   -2.0125965603   -0.6128023408
C        2.0091711982   -2.8447798955   -0.5893104602
C        0.3338958602   -2.2353711825   -4.5745695636
C        0.7674481108   -2.6467691830   -3.1617350267
C        0.3390543153   -1.6331193685   -2.0864169842
N       -0.0901212836   -1.5705487988    2.1803368537
O       -1.0902920394   -1.4644818108   -2.1540173201
H        0.1328048394   -0.0070024324   -0.0392510850
H        1.8798256044   -0.2146674179   -0.2356186460
H       -0.5233997213   -3.7932641271   -0.3571617713
H       -1.3747374952   -2.2736716191   -0.0876350678
H        2.0323835503   -1.4021467084    1.9098079728
H        1.1512483124    0.1115371401    2.1483606898
H       -1.0964946667   -3.3962878687    2.0405686606
H        0.6507307082   -3.5532405622    1.8182306040
H        1.8761809857   -3.8263038833   -1.0530611493
H        2.3478380607   -3.0168857336    0.4344355139
H        2.8229682812   -2.3284685778   -1.1112769337
H        0.7401458726   -2.9234234455   -5.3229792470
H        0.6941733945   -1.2292062779   -4.8256813339
H       -0.7553988204   -2.2479030652   -4.6865838745
H        1.8558440110   -2.7559313110   -3.1483859143
H        0.3413345605   -3.6278244570   -2.9205868377
H        0.8301231908   -0.6737045177   -2.3135845839
H       -0.0276786437   -1.6455490189    3.1931748945
H       -1.2914357093   -0.9534727498   -2.9520387086
30   
torsion grid (-75,)
C        0.9315257877   -0.6622504200    0.1786167747
C       -0.3584993025   -2.8262988332    0.0141739068
C        1.0060672832   -0.8714432554    1.6942522469
C       -0.2030910166   -2.9673156589    1.5315413244
C        0.7704377776   -1.9818991990   -0.6188816555
C        2.1088792348   -2.7499236714   -0.5844928418
C        0.2291365015   -2.3170620119   -4.5391980713
C        0.6480578336   -2.7223292468   -3.1204080530
C        0.4362622086   -1.6014041451   -2.0890007717
N       -0.1593201819   -1.6367329889    2.1485573641
O       -0.9368866705   -1.1685125468   -2.1192204134
H        0.0697999988   -0.0219232711   -0.0361582038
H        1.8322717096   -0.1359239734   -0.1619877022
H       -0.3862848920   -3.8226434307   -0.4433292363
H       -1.3167719979   -2.3438530005   -0.1874273187
H        1.9603421865   -1.3619175456    1.9626841138
H        0.9988057413    0.1032626815    2.1949454774
H       -1.0682503341   -3.5060345350    1.9335575844
H        0.6922632860   -3.5711962381    1.7704423886
H        2.0170175560   -3.7514800716   -1.0147126949
H        2.4714115052   -2.8714867418    0.4386146053
H        2.8866549426   -2.2114357134   -1.1394822039
H        0.4856483577   -3.0994557053   -5.2607026814
H        0.7378929836   -1.3982303255   -4.8586322561
H       -0.8513788610   -2.1547613010   -4.6130731368
H        1.7053839333   -3.0034238967   -3.1342675172
H        0.0822843699   -3.6091004930   -2.8119841988
H        1.0903487825   -0.7574937071   -2.3645094419
H       -0.1289954361   -1.7318966237    3.1611851103
H       -1.0772345109   -0.6747969932   -2.9405527267
30   
torsion grid (-60,)
C        0.8752094815   -0.6432553766    0.1948612892
C       -0.2852767001   -2.8628483372   -0.0242124216
C        0.9422538440   -0.8722559100    1.7073650567
C       -0.1672253833   -3.0152811725    1.4953847962
C        0.8188615428   -1.9592069975   -0.6227538099
C        2.1912084468   -2.6608648010   -0.5756358812
C        0.1857970972   -2.3533006061   -4.5217341795
C        0.4860636316   -2.7759029347   -3.0776590826
C        0.4932270744   -1.5946852084   -2.0954576255
N       -0.1948763543   -1.6949426885    2.1329095046
O       -0.7795864751   -0.9233753252   -2.1049243612
H       -0.0226057029   -0.0604985479   -0.0236699256
H        1.7426519106   -0.0500827033   -0.1239060659
H       -0.2518871304   -3.8572724906   -0.4843091970
H       -1.2600040419   -2.4232352359   -0.2529937911
H        1.9129823230   -1.3242675608    1.9843471426
H        0.8838393480    0.0938402227    2.2210759887
H       -1.0181411215   -3.5970687002    1.8668782524
H        0.7473771740   -3.5848507147    1.7466373767
H        2.1502277452   -3.6692101991   -0.9984085400
H        2.5556721933   -2.7586661227    0.4493401755
H        2.9430091080   -2.0892885434   -1.1334723234
H        0.2799463007   -3.2029710321   -5.2055648994
H        0.8818143382   -1.5769394901   -4.8635690612
H       -0.8351644757   -1.9704945340   -4.6320108389
H        1.4636193358   -3.2673501900   -3.0526579071
H       -0.2555465109   -3.5132110666   -2.7525509703
H        1.2713568439   -0.8846738117   -2.4255309923
H       -0.1754531091   -1.8051667322    3.1443380383
H       -0.9055719575   -0.5316360523   -2.9815659761
30   
torsion grid (-45,)
C        0.8089471102   -0.6236200174    0.2131453852
C       -0.2142181143   -2.8932469515   -0.0531575692
C        0.8961610596   -0.8798064999    1.7199086920
C       -0.1107984127   -3.0682992913    1.4654611789
C        0.8493691583   -1.9248403620   -0.6276323108
C        2.2551524023   -2.5541333701   -0.5704731119
C        0.1858004751   -2.4138735191   -4.5076658070
C        0.2849631571   -2.7896798070   -3.0228688309
C        0.5299635800   -1.5795568476   -2.1094900951
N       -0.1995690911   -1.7648925055    2.1298216037
O       -0.5976906366   -0.6874065087   -2.1337544788
H       -0.1275452822   -0.1025708896    0.0104019730
H        1.6271165076    0.0406888021   -0.0953528371
H       -0.1274970615   -3.8783076055   -0.5256204132
H       -1.2077199507   -2.4971021651   -0.2882066215
H        1.8887854324   -1.2878005847    1.9867906350
H        0.7897417751    0.0719286236    2.2523033827
H       -0.9411486865   -3.6927394046    1.8138816752
H        0.8228485039   -3.6061056125    1.7161042194
H        2.2983331006   -3.5081986924   -1.1053586064
H        2.5671376049   -2.7514068712    0.4572774184
H        3.0005270200   -1.8839286317   -1.0143148013
H        0.0736485377   -3.3068264776   -5.1309542244
H        1.0832576716   -1.8820672730   -4.8451846015
H       -0.6826793372   -1.7772069186   -4.7174664315
H        1.1013292674   -3.5083432829   -2.8975883827
H       -0.6365819959   -3.2912860437   -2.7109715504
H        1.4074254969   -1.0343849635   -2.4990775112
H       -0.1749973757   -1.8948601248    3.1387790830
H       -0.7762831401   -0.4590890669   -3.0581872905
30   
torsion grid (-30,)
C        0.7335666921   -0.6153387056    0.2220715104
C       -0.1489793330   -2.9236930741   -0.0758206114
C        0.8365647085   -0.8828935183    1.7255328280
C       -0.0559622987   -3.1166304188    1.4415809516
C        0.8775380721   -1.9003029861   -0.6300174229
C        2.3074461216   -2.4674652145   -0.5476319251
C        0.1192040144   -2.4766123844   -4.4840854843
C        0.1388081849   -2.7765130230   -2.9791031922
C        0.5903822499   -1.5793718511   -2.1316177483
N       -0.2100681625   -1.8300984130    2.1253913019
O       -0.3490535983   -0.4941089741   -2.2149925472
H       -0.2398632650   -0.1663451658    0.0226381884
H        1.4944399316    0.1174152531   -0.0753582238
H       -0.0200343593   -3.8989797389   -0.5580027545
H       -1.1582340732   -2.5682823771   -0.3116813694
H        1.8505054513   -1.2385230738    1.9868405265
H        0.6781588065    0.0558222833    2.2679894172
H       -0.8625562055   -3.7826523800    1.7685590278
H        0.8960999395   -3.6186901081    1.6958631628
H        2.4288460495   -3.3391146661   -1.2007723020
H        2.5672037615   -2.7861363406    0.4640097121
H        3.0418885927   -1.7141141605   -0.8541394677
H       -0.1388356863   -3.3721308756   -5.0584364747
H        1.0972961336   -2.1257096897   -4.8337400497
H       -0.6255332898   -1.7144617727   -4.7453297330
H        0.8171078872   -3.6176478107   -2.7968870257
H       -0.8578181420   -3.0928026028   -2.6557054211
H        1.5443845751   -1.2208831348   -2.5549133252
H       -0.1767943871   -1.9733373445    3.1323328511
H       -0.5019295949   -0.3093605941   -3.1540246284
30   
torsion grid (-15,)
C        1.3266773641   -0.6225700789    0.4452626120
C       -0.5471130608   -2.2156197612    0.1141982846
C        1.5039587499   -1.1738810827    1.8619964868
C       -0.3424773691   -2.7087111116    1.5508204138
C        0.7503611026   -1.6677596411   -0.5417277343
C        1.7433059548   -2.8179032848   -0.7948217159
C       -0.9233171768   -0.9508422940   -4.0899956838
C       -0.8038583115   -1.4898211904   -2.6582129316
C        0.4587028885   -1.0016006254   -1.9368212575
N        0.2093534650   -1.6327409919    2.3776941857
O        0.4737638089    0.4305764941   -1.8006314896
H        0.6475269319    0.2299060870    0.4934765099
H        2.2865667408   -0.2447104478    0.0750294890
H       -0.9663055590   -3.0365709059   -0.4776776191
H       -1.2941472329   -1.4150426326    0.1432720537
H        2.2695584527   -1.9715876961    1.8720252152
H        1.8701313778   -0.3724484955    2.5133318849
H       -1.3117269838   -3.0052435525    1.9677689661
H        0.2949041103   -3.6120884507    1.5505137648
H        1.3495801726   -3.5135811787   -1.5459224261
H        1.9516301572   -3.3987327527    0.1061461715
H        2.6980926141   -2.4290700039   -1.1662400696
H       -1.7840782472   -1.3918070380   -4.6028420791
H       -0.0292282570   -1.1836693823   -4.6810399884
H       -1.0711885247    0.1356553611   -4.1106206364
H       -0.7815544723   -2.5851939540   -2.6954725242
H       -1.6922905684   -1.2062255646   -2.0857115378
H        1.3107059178   -1.2688835803   -2.5832334837
H        0.3172192844   -1.9595216239    3.3353904188
H        0.3774186078    0.8079362419   -2.6880700261
30   
torsion grid (0,)
C        1.2508474823   -0.6093694740    0.4246008116
C       -0.5001551385   -2.3502855560    0.0690132940
C        1.3987183022   -1.1094507353    1.8640115185
C       -0.3027895273   -2.7951370198    1.5222692519
C        0.7680680261   -1.7097789497   -0.5545193893
C        1.8586471355   -2.7863881248   -0.7373312816
C       -1.0210123281   -0.8518846669   -4.0313650226
C       -0.8944091050   -1.3522212530   -2.5862119272
C        0.4960887904   -1.0973175472   -1.9872730587
N        0.1216704513   -1.6546381755    2.3376092435
O        0.7802546547    0.3147888781   -1.9575039479
H        0.5280905963    0.2100123920    0.4220102447
H        2.2020345245   -0.1924640460    0.0808636510
H       -0.8269634141   -3.2151327597   -0.5192879228
H       -1.3153806727   -1.6203665855    0.0627380051
H        2.2211180572   -1.8451822888    1.9319347515
H        1.6736799736   -0.2655155208    2.5065300623
H       -1.2568895916   -3.1666485143    1.9131234614
H        0.4111968293   -3.6378134184    1.5668296633
H        1.5249786772   -3.5607811101   -1.4389534466
H        2.1215550456   -3.2862426930    0.1974424723
H        2.7736024723   -2.3387195425   -1.1414655642
H       -1.9880619752   -1.1352082585   -4.4591201119
H       -0.2386680205   -1.2773154393   -4.6722756275
H       -0.9578711300    0.2406645178   -4.0948975374
H       -1.0969530490   -2.4286452551   -2.5682797399
H       -1.6577898211   -0.8707623287   -1.9668424872
H        1.2213503226   -1.5644922015   -2.6706216221
H        0.2118988120   -1.9444426866    3.3089574226
H        0.7853155578    0.6289852260   -2.8740999132
30   
torsion grid (15,)
C        1.1693987095   -0.6029560483    0.3809304698
C       -0.4465742124   -2.4969832132    0.0198673514
C        1.2741354284   -1.0408380774    1.8449112766
C       -0.2596277082   -2.8791808419    1.4918112708
C        0.7794531912   -1.7618374309   -0.5722947533
C        1.9707487491   -2.7422240167   -0.6861663183
C       -1.1016606501   -0.7229987554   -3.9447309096
C       -0.9439865765   -1.2025180223   -2.4957182093
C        0.5205432508   -1.2200943821   -2.0307987690
N        0.0228990545   -1.6742266540    2.2762062259
O        1.0625449708    0.1127115796   -2.1172014974
H        0.4131025532    0.1854832402    0.3150140211
H        2.1150420636   -0.1605211958    0.0599967820
H       -0.6664583770   -3.4018696261   -0.5598358238
H       -1.3264767349   -1.8500615583   -0.0318820338
H        2.1473510729   -1.7046681913    1.9821210370
H        1.4470564375   -0.1567290229    2.4686337531
H       -1.1870057035   -3.3282037378    1.8647949076
H        0.5309381448   -3.6453745234    1.5899396397
H        1.7089603105   -3.6027411444   -1.3136317676
H        2.2956682705   -3.1309539862    0.2815960510
H        2.8293503595   -2.2388755381   -1.1444413029
H       -2.1411511381   -0.8152074601   -4.2755327978
H       -0.4840213737   -1.3157272867   -4.6315678929
H       -0.8260135976    0.3313048689   -4.0597045712
H       -1.3616371517   -2.2112032913   -2.4120979912
H       -1.5278336431   -0.5548964899   -1.8323564496
H        1.0730843970   -1.8688315398   -2.7264735878
H        0.0852932855   -1.9163280035    3.2626559770
H        1.1190485551    0.3447972119   -3.0561588340
30   
torsion grid (30,)
C        1.0721916648   -0.5963703513    0.3281266370
C       -0.4003044984   -2.6145265713   -0.0069378752
C        1.1626234219   -0.9772105388    1.8094442405
C       -0.2137237294   -2.9447898259    1.4770440598
C        0.7849000317   -1.8124251518   -0.5885647466
C        2.0503865728   -2.7011565404   -0.6497752557
C       -1.1316963283   -0.5778303148   -3.8573136222
C       -0.9513493985   -1.0883249589   -2.4218978352
C        0.5198989993   -1.3445144160   -2.0586330248
N       -0.0462643093   -1.6967467646    2.2284273631
O        1.2799328923   -0.1375225509   -2.2657924549
H        0.2672772186    0.1385319630    0.2142193303
H        1.9962759873   -0.1067491450    0.0150419934
H       -0.5490618321   -3.5415405425   -0.5755301317
H       -1.3194850205   -2.0280921905   -0.0843397239
H        2.0811648228   -1.5640059229    1.9925012364
H        1.2457078772   -0.0636482378    2.4086391125
H       -1.1093672056   -3.4558599014    1.8474283851
H        0.6343495815   -3.6403173761    1.6118646769
H        1.8538587544   -3.6210751284   -1.2134100645
H        2.4122945812   -2.9944452144    0.3382010319
H        2.8600557761   -2.1609945051   -1.1516743071
H       -2.1931613906   -0.5046131448   -4.1148802605
H       -0.6645186608   -1.2549662382   -4.5842518949
H       -0.7012823276    0.4203138049   -3.9919594782
H       -1.5149234115   -2.0199792444   -2.3078892563
H       -1.3793138442   -0.3638999209   -1.7192150953
H        0.8961301108   -2.1288596088   -2.7335234906
H        0.0085846755   -1.9027649515    3.2234344545
H        1.3409909264    0.0126303521   -3.2208987502
30   
torsion grid (45,)
C        0.9743228677   -0.5923921588    0.2904196095
C       -0.3546176304   -2.7068068408   -0.0180836577
C        1.0760317404   -0.9342037951    1.7803430986
C       -0.1682127284   -2.9965654740    1.4743325577
C        0.7900027197   -1.8471882288   -0.5986856664
C        2.1058876098   -2.6583067229   -0.6296262392
C       -1.1220486927   -0.4643825948   -3.7998919179
C       -0.9401471260   -0.9750891258   -2.3647685498
C        0.4966474824   -1.4349379832   -2.0696455737
N       -0.0874200951   -1.7249519800    2.2017822930
O        1.4321371905   -0.3888134873   -2.3968502207
H        0.1163383117    0.0759251957    0.1569163034
H        1.8629295543   -0.0420919150   -0.0269977536
H       -0.4417475173   -3.6495147057   -0.5740084565
H       -1.3050948610   -2.1757251802   -0.1163653104
H        2.0299309210   -1.4539184261    1.9828505660
H        1.0905301994   -0.0058451506    2.3620992122
H       -1.0357193569   -3.5534354174    1.8456154438
H        0.7187937018   -3.6356409282    1.6335628704
H        1.9692188456   -3.5961556159   -1.1814962955
H        2.4645077356   -2.9173175685    0.3689250144
H        2.8894513939   -2.0801125542   -1.1274881146
H       -2.1755187762   -0.2497675698   -4.0060598115
H       -0.7908539952   -1.2095316761   -4.5350153067
H       -0.5661424997    0.4627147649   -3.9754798981
H       -1.6196605627   -1.8184732785   -2.2066790389
H       -1.2314913628   -0.1904779044   -1.6575357804
H        0.7007863851   -2.3124102356   -2.7052005035
H       -0.0290767756   -1.9080227381    3.2010759958
H        1.4424072589   -0.2883138420   -3.3601596159
30   
torsion grid (60,)
C        0.8852849985   -0.5879899348    0.2988561033
C       -0.3075337447   -2.7728700183   -0.0304850933
C        1.0147526883   -0.9330313159    1.7854683065
C       -0.1272697005   -3.0541861913    1.4649142754
C        0.7941803518   -1.8460147256   -0.5980142252
C        2.1466761528   -2.5912075130   -0.6184320468
C       -1.1232762152   -0.4608751647   -3.8010465043
C       -0.8926282345   -0.7952658018   -2.3208871296
C        0.4681727568   -1.4614105361   -2.0663961812
N       -0.1090500399   -1.7837119460    2.1992542467
O        1.5386318601   -0.6077611057   -2.5153924177
H       -0.0231009734    0.0112931240    0.1812213396
H        1.7290827362    0.0314984764   -0.0188370423
H       -0.3273621975   -3.7192415896   -0.5863839067
H       -1.2878777182   -2.3023223249   -0.1458161461
H        1.9941179610   -1.4052412221    1.9809131618
H        0.9820725584   -0.0100259438    2.3749293625
H       -0.9742356353   -3.6490374867    1.8246119631
H        0.7837502700   -3.6553827949    1.6336303938
H        2.0799218330   -3.4881269205   -1.2462004887
H        2.4568113177   -2.9132561561    0.3778182388
H        2.9302783636   -1.9505156193   -1.0282077889
H       -2.1391574872   -0.0861968082   -3.9619277496
H       -0.9948604032   -1.3463467875   -4.4363260494
H       -0.4398525632    0.3184723754   -4.1571004055
H       -1.6888465811   -1.4684091338   -1.9894676361
H       -0.9756209255    0.1196134759   -1.7259123514
H        0.4914100238   -2.3976696365   -2.6508765633
H       -0.0442118309   -1.9700975348    3.1975363036
H        1.4519123159   -0.4964363770   -3.4735587151
30   
torsion grid (75,)
C        0.8150217745   -0.5891336414    0.3122922971
C       -0.2443270381   -2.8308725127   -0.0788327932
C        0.9269042749   -0.9468915111    1.7968086311
C       -0.1161374167   -3.1069936418    1.4230390283
C        0.8222148370   -1.8357730206   -0.6033482311
C        2.2072638443   -2.5148808165   -0.5974857767
C       -1.2000142017   -0.5169889971   -3.7524235858
C       -0.7627108493   -0.5894158726   -2.2827793803
C        0.4805108820   -1.4662590303   -2.0723351370
N       -0.1765675027   -1.8431974941    2.1659325631
O        1.6407970880   -0.8293966232   -2.6410591928
H       -0.1265882695   -0.0468483493    0.1855365395
H        1.6271326102    0.0868398394    0.0237309950
H       -0.1732023655   -3.7764525841   -0.6310899755
H       -1.2479057959   -2.4286155911   -0.2501431164
H        1.9178163396   -1.3862014915    2.0101133144
H        0.8447017691   -0.0341515806    2.3972922163
H       -0.9504075172   -3.7395697250    1.7461439390
H        0.8118918281   -3.6710129124    1.6251277602
H        2.2257746991   -3.3510767774   -1.3061311317
H        2.4604450889   -2.9121745857    0.3880045333
H        2.9880082235   -1.8122969595   -0.8941844756
H       -2.1087040667    0.0836722625   -3.8615715742
H       -1.4084582352   -1.5149313563   -4.1554426736
H       -0.4387558239   -0.0501081373   -4.3901735438
H       -1.5954330215   -0.9771948391   -1.6878370988
H       -0.5496933743    0.4195242978   -1.9160039356
H        0.3145432703   -2.4220875714   -2.5996297300
H       -0.1396347201   -2.0355570740    3.1645051197
H        1.4476856065   -0.6337068409   -3.5701703312
30   
torsion grid (90,)
C        0.7367386479   -0.5960253958    0.3131218398
C       -0.1902189516   -2.8819469949   -0.0852073363
C        0.8570647947   -0.9446934711    1.7991842964
C       -0.0786804150   -3.1488890422    1.4190169460
C        0.8342909571   -1.8378809202   -0.6065122300
C        2.2506558941   -2.4416435689   -0.5809453129
C       -1.1964721120   -0.4343689734   -3.7196392198
C       -0.6814187382   -0.4922307561   -2.2750121453
C        0.4466788187   -1.5134945219   -2.0817717000
N       -0.2068386598   -1.8897005080    2.1605393307
O        1.6350267692   -1.1124451559   -2.7896525354
H       -0.2353107991   -0.1138939620    0.1821033093
H        1.5072633888    0.1337348784    0.0373367192
H       -0.0632644942   -3.8255041739   -0.6302592812
H       -1.2080248672   -2.5265076805   -0.2848488146
H        1.8656244657   -1.3363977137    2.0215101420
H        0.7273145889   -0.0348549144    2.3957136019
H       -0.8894939305   -3.8179982074    1.7281641181
H        0.8700741022   -3.6713252121    1.6368116448
H        2.3245562124   -3.2807300011   -1.2809226661
H        2.5090455909   -2.8135243319    0.4132543308
H        2.9979405642   -1.7022293063   -0.8750655583
H       -2.0386794481    0.2594671534   -3.8071125984
H       -1.5377970234   -1.4187948364   -4.0607701293
H       -0.4288579174   -0.0827562827   -4.4203785824
H       -1.5165679187   -0.7470053845   -1.6133957697
H       -0.3236325327    0.4976759325   -1.9741652429
H        0.1067449507   -2.4677603557   -2.5201999164
H       -0.1696339531   -2.0796237805    3.1596059740
H        1.3880439531   -0.9504056504   -3.7126179603
30   
torsion grid (105,)
C        0.6345758845   -0.6123720567    0.3180317066
C       -0.1452169287   -2.9476920547   -0.0580411886
C        0.7926386474   -0.9438300547    1.8050652451
C       -0.0011085153   -3.2049398439    1.4443989046
C        0.8085957607   -1.8478267586   -0.6024156864
C        2.2620219224   -2.3522978093   -0.5750015405
C       -1.1185330057   -0.3056637234   -3.7391534092
C       -0.6101410735   -0.4072290264   -2.2947112068
C        0.3650971798   -1.5710222116   -2.0838481787
N       -0.2008331128   -1.9548005684    2.1850699823
O        1.5397101138   -1.4290349908   -2.9058972184
H       -0.3673263857   -0.1945053719    0.1963560753
H        1.3528364332    0.1685915105    0.0392774695
H        0.0257820500   -3.8835817612   -0.6041181917
H       -1.1830343080   -2.6454910948   -0.2479799137
H        1.8276289136   -1.2635659252    2.0201880629
H        0.6077789528   -0.0394626753    2.3954677702
H       -0.7646757388   -3.9234869650    1.7629421129
H        0.9811113701   -3.6663116241    1.6517227488
H        2.3868932087   -3.2185178311   -1.2311448822
H        2.5576259915   -2.6496105626    0.4337451554
H        2.9529440888   -1.5794929288   -0.9188354409
H       -1.8830470135    0.4725326549   -3.8295279056
H       -1.5652372796   -1.2501804829   -4.0728866758
H       -0.3187930854   -0.0404427321   -4.4411285087
H       -1.4702726733   -0.5461765490   -1.6299984344
H       -0.1294597885    0.5337858021   -2.0079520419
H       -0.1526009356   -2.4843969915   -2.4206398758
H       -0.1371978191   -2.1377119199    3.1840990999
H        1.2444090842   -1.3470185909   -3.8251987805
30   
torsion grid (120,)
C        0.5063039627   -0.6380325739    0.3341687697
C       -0.1008961878   -3.0325876272   -0.0190122311
C        0.7202327556   -0.9558316077    1.8184058715
C        0.1143683397   -3.2787590869    1.4761559440
C        0.7414428278   -1.8611492629   -0.5911509325
C        2.2370832107   -2.2333540412   -0.5874071635
C       -0.9938513785   -0.1803107299   -3.7866349197
C       -0.5074399064   -0.3085779806   -2.3368539966
C        0.2435373178   -1.6211040327   -2.0716885306
N       -0.1720484308   -2.0483523294    2.2219727661
O        1.3642627827   -1.7551153149   -2.9674339639
H       -0.5233646031   -0.2851664693    0.2359252199
H        1.1663061465    0.1881892228    0.0445228538
H        0.1211829665   -3.9492336808   -0.5793373809
H       -1.1647838001   -2.8082376070   -0.1684551889
H        1.7831766307   -1.1823251163    2.0135897739
H        0.4693205328   -0.0692549592    2.4115257796
H       -0.5744532699   -4.0596140764    1.8175813199
H        1.1386986821   -3.6528650434    1.6525798065
H        2.4247848394   -3.1224865788   -1.1935964882
H        2.5880177291   -2.4353429860    0.4268553245
H        2.8434070981   -1.4228156192   -0.9995065566
H       -1.6218455428    0.7078783117   -3.9091316923
H       -1.5921498633   -1.0500646235   -4.0863724589
H       -0.1616562656   -0.0767745353   -4.4922991946
H       -1.3777060553   -0.2619287874   -1.6736930306
H        0.1331631828    0.5441879364   -2.0884062742
H       -0.4582375403   -2.4375311923   -2.3029203238
H       -0.0685377915   -2.2221432543    3.2192723508
H        1.0138535683   -1.7630494917   -3.8707701994
30   
torsion grid (135,)
C        0.3565450709   -0.6696501733    0.3580048401
C       -0.0522155384   -3.1198832543    0.0076035864
C        0.6307457501   -0.9768630517    1.8354842670
C        0.2406567876   -3.3483969142    1.4920446401
C        0.6537726434   -1.8718435314   -0.5762178244
C        2.1828554443   -2.0910443327   -0.6154291287
C       -0.8607806360   -0.0924211249   -3.8244332046
C       -0.3401359509   -0.2223568405   -2.3868252463
C        0.1149162562   -1.6503748586   -2.0426948574
N       -0.1428596520   -2.1522859887    2.2513991870
O        1.1424413138   -2.0535556410   -2.9704598474
H       -0.7011039511   -0.3957023004    0.2889068396
H        0.9440206868    0.2036348276    0.0556834848
H        0.2342109501   -4.0058709293   -0.5721056939
H       -1.1369823895   -2.9943844534   -0.0981230543
H        1.7142713461   -1.1017265053    2.0067757976
H        0.3101339008   -0.1217880198    2.4411439371
H       -0.3547028844   -4.1938733674    1.8544264706
H        1.3027802474   -3.6177378409    1.6317465829
H        2.4422857215   -2.9854430745   -1.1843398109
H        2.5906519696   -2.1984666296    0.3916821096
H        2.6852652021   -1.2433745833   -1.0905989978
H       -1.2765495782    0.9051055666   -3.9991804260
H       -1.6571474627   -0.8198101914   -4.0280960306
H       -0.0657102645   -0.2379352824   -4.5640454916
H       -1.1364912519    0.0806407999   -1.7006985973
H        0.4952540442    0.4709280082   -2.2377962408
H       -0.7540462571   -2.3118129727   -2.1781342541
H        0.0009227003   -2.3186743244    3.2449598172
H        0.7291677195   -2.1367861534   -3.8427975999
30   
torsion grid (150,)
C        1.1340635165   -0.6889512143    0.1972976925
C       -0.3349200047   -2.7124794705   -0.1010801040
C        1.0910533005   -0.9479178363    1.7083426291
C       -0.3093503282   -2.9091918304    1.4159086859
C        0.9111714785   -1.9734628395   -0.6404367142
C        2.1693532312   -2.8627814766   -0.5068698188
C        1.1139703780   -0.1009963927   -4.1496425531
C        1.3480158313   -0.3517181109   -2.6543869168
C        0.6785758607   -1.6426935113   -2.1525320141
N       -0.1716264287   -1.6018405181    2.0701472463
O        1.1755813572   -2.7539729483   -2.9257668039
H        0.3425742623    0.0373969404   -0.0241939385
H        2.0902886939   -0.2241149822   -0.0618299281
H       -0.4340166856   -3.6796046937   -0.6072661466
H       -1.2277798835   -2.1215644918   -0.3398021611
H        1.9732857753   -1.5356892464    2.0179651708
H        1.1472296529    0.0107073234    2.2361535966
H       -1.2530130061   -3.3610635327    1.7411000483
H        0.4981321727   -3.6097597979    1.6946601900
H        2.0258184041   -3.8286705074   -0.9932791490
H        2.4188712552   -3.0418431986    0.5410678116
H        3.0350091511   -2.3830166410   -0.9752610588
H        1.5190168787    0.8706617446   -4.4502976827
H        0.0431142149   -0.0979799132   -4.3909035471
H        1.6041039001   -0.8572620961   -4.7720894063
H        0.9606192154    0.5026803401   -2.0917984564
H        2.4253897043   -0.4058122837   -2.4587000022
H       -0.4056960099   -1.5440723080   -2.3151625588
H       -0.2135470640   -1.7202321337    3.0799786763
H        0.7910504079   -2.6900091984   -3.8126164950
30   
torsion grid (165,)
C        1.0506756262   -0.6556746423    0.2175545285
C       -0.2910122259   -2.7649817815   -0.1017900202
C        1.0168428100   -0.9300131519    1.7252794581
C       -0.2606365140   -2.9658163644    1.4143496436
C        0.9065146622   -1.9410949530   -0.6329477852
C        2.2095779974   -2.7650323459   -0.5412287384
C        1.1936284832   -0.1504868453   -4.1663475504
C        1.4667302183   -0.4184763273   -2.6808224587
C        0.6278859082   -1.5779856239   -2.1186933572
N       -0.2070850645   -1.6570984056    2.0773507341
O        0.8591382239   -2.7698591446   -2.8954036975
H        0.2231750950    0.0282135819   -0.0121101954
H        1.9831751974   -0.1381370569   -0.0292105151
H       -0.3229852365   -3.7329995849   -0.6122580323
H       -1.2199184484   -2.2341058842   -0.3442440337
H        1.9303909607   -1.4737790887    2.0268224947
H        1.0213908697    0.0240001154    2.2641389998
H       -1.1753818924   -3.4783996941    1.7319938743
H        0.5880462978   -3.6156182015    1.6949421468
H        2.1224152427   -3.6964866048   -1.1033029112
H        2.4515127580   -3.0130577459    0.4948844589
H        3.0586797414   -2.2062936925   -0.9487718460
H        1.7320095458    0.7393125816   -4.5082127274
H        0.1255094847    0.0220962160   -4.3512882401
H        1.5209943738   -0.9842325482   -4.7967016012
H        1.2450170113    0.4908488461   -2.1138336113
H        2.5317232813   -0.6349543051   -2.5401539153
H       -0.4332630208   -1.2923222559   -2.1981097058
H       -0.2467274503   -1.7840682741    3.0862159117
H        0.4383152957   -2.6487516438   -3.7593950159
30   
torsion grid (180,)
C        0.9755231339   -0.6264071911    0.2409455426
C       -0.2364576689   -2.8022590485   -0.1108042178
C        0.9419724708   -0.9130120822    1.7452931826
C       -0.2257141842   -3.0042212561    1.4053711062
C        0.9239706954   -1.9104385060   -0.6216070420
C        2.2614486821   -2.6732907100   -0.5405000393
C        1.2102531066   -0.1807458861   -4.1829954032
C        1.5853617338   -0.5311068380   -2.7371356602
C        0.6146264601   -1.5314740411   -2.0923476621
N       -0.2488877550   -1.7001651169    2.0783316934
O        0.5792590679   -2.7599361550   -2.8433939120
H        0.1114239743    0.0062497369   -0.0003234979
H        1.8783575248   -0.0498132931    0.0131218783
H       -0.2060682951   -3.7695672843   -0.6197693739
H       -1.1880855190   -2.3253105297   -0.3763605880
H        1.8784172480   -1.4169617254    2.0478157035
H        0.8974486301    0.0352989792    2.2922932424
H       -1.1191521629   -3.5646253232    1.7022712731
H        0.6487986003   -3.6123975780    1.7008908255
H        2.2584376037   -3.5237063069   -1.2267430374
H        2.4452437928   -3.0531757627    0.4675790158
H        3.1067130169   -2.0275600043   -0.8002606685
H        1.8714981084    0.5951803380   -4.5819132117
H        0.1822125362    0.1970212095   -4.2485867432
H        1.3000619828   -1.0462441915   -4.8492758435
H        1.5929553763    0.3888100666   -2.1437289754
H        2.6008815516   -0.9399483087   -2.7139778236
H       -0.3903311049   -1.0775311550   -2.1013855785
H       -0.2938586203   -1.8370717366    3.0857041565
H        0.1900292454   -2.5708451253   -3.7098020498
