27   
torsion grid (-165,)
C        0.3401788584   -3.0197598244   -6.6212324737
C        0.7787277242   -1.7313646308   -4.9377350138
C       -0.1740519280   -2.6765390360   -4.5143576137
C       -1.4270554384    2.1199280690   -1.9027348906
C       -0.5703702249    1.2302005178   -5.6522705286
C       -0.0339693497    1.7027604381   -2.3646417414
C       -1.0253802684    0.5013777815   -4.3815525984
N        1.0804079128   -1.9829680452   -6.2591748464
N        1.5564221601   -0.8525005876   -4.2120188014
N        1.2075547130    0.0542340300   -3.3997250909
N       -0.4313428992   -3.4879952390   -5.6083015305
N       -0.0225224207    0.5540992305   -3.3031226704
N       -0.8182324163   -2.9050639151   -3.2917577586
O       -1.6319316639   -3.8577284743   -3.2455108880
O       -0.5532721498   -2.1468344981   -2.3414637911
H        0.3356215315   -3.4639692417   -7.6088589282
H       -1.9974069762    1.2626505328   -1.5316829387
H       -1.3200170684    2.8343939521   -1.0807858676
H       -2.0044340890    2.6166472202   -2.6875003555
H        0.3183840936    0.7701466126   -6.0898399334
H       -1.3711956155    1.1945186462   -6.3977853209
H       -0.3479415824    2.2808108356   -5.4405831310
H        0.4744715955    2.5561524137   -2.8325871662
H        0.5693246715    1.3915145611   -1.5119472005
H       -1.9304012233    0.9590123036   -3.9864336783
H       -1.2851088666   -0.5324944537   -4.5980332032
H       -1.0643638864   -4.2796323118   -5.5855890358
27   
torsion grid (-150,)
C        0.3334089751   -3.0405440241   -6.5707707370
C        0.7812585841   -1.7024526753   -4.9284267679
C       -0.2096183733   -2.6010140929   -4.4887088106
C       -1.4377927473    1.9015450452   -1.7455301888
C       -0.4489986137    1.2245571492   -5.7566276431
C       -0.0760661470    1.7491546570   -2.4218093365
C       -0.9847529998    0.5791868261   -4.4720088977
N        1.0990674985   -2.0144566540   -6.2334168761
N        1.5690339372   -0.8138193499   -4.2269533052
N        1.2197039260    0.1101496204   -3.4330065591
N       -0.4724196814   -3.4444755293   -5.5568017485
N       -0.0122571934    0.6122638377   -3.3636735755
N       -0.8799898016   -2.7723425543   -3.2705626326
O       -1.7327383101   -3.6899843490   -3.2141371854
O       -0.5981985259   -2.0029679748   -2.3341615050
H        0.3334064033   -3.5222421382   -7.5406812846
H       -1.7628789714    0.9523482754   -1.3093924750
H       -1.3524619138    2.6388830009   -0.9412213675
H       -2.2148906774    2.2584526337   -2.4270672414
H        0.4131356595    0.6898023129   -6.1597327232
H       -1.2361840801    1.2171534107   -6.5172490875
H       -0.1579654305    2.2640834794   -5.5767047388
H        0.1882962493    2.6763498684   -2.9500040328
H        0.6997137075    1.5590815187   -1.6811503105
H       -1.8610912983    1.1223476670   -4.1212860157
H       -1.3173978321   -0.4413268233   -4.6559645526
H       -1.1300876995   -4.2150469163   -5.5161021912
27   
torsion grid (-135,)
C        0.3156941313   -3.0787831862   -6.5154768135
C        0.7662574812   -1.6953599961   -4.9109078623
C       -0.2703040652   -2.5414887646   -4.4678498560
C       -1.4211229045    1.6618305845   -1.6309040269
C       -0.3720272844    1.1980782045   -5.8543898133
C       -0.1390212928    1.7622329322   -2.4586439320
C       -0.9625200541    0.6364252566   -4.5547203769
N        1.1082012960   -2.0686224501   -6.1941053450
N        1.5629322462   -0.8050188511   -4.2252977684
N        1.2119417537    0.1375353245   -3.4503503568
N       -0.5329951569   -3.4150405523   -5.5119048190
N       -0.0070632437    0.6651190103   -3.4320747890
N       -0.9742503672   -2.6532709953   -3.2626163908
O       -1.8640394533   -3.5350496953   -3.2011556370
O       -0.6836659735   -1.8707436073   -2.3389535568
H        0.3254798427   -3.5967888618   -7.4664814119
H       -1.4815251213    0.6889882808   -1.1359059894
H       -1.4205068945    2.4469596780   -0.8680078287
H       -2.3220679777    1.7959037082   -2.2369013399
H        0.4582276343    0.5979917658   -6.2302645433
H       -1.1518442171    1.2142987254   -6.6223749844
H       -0.0173322795    2.2224909829   -5.7045504526
H       -0.1033198316    2.7230974806   -2.9915321080
H        0.7407472899    1.7007142233   -1.8189275552
H       -1.8049039336    1.2529143987   -4.2400632632
H       -1.3589266922   -0.3682966639   -4.7024298418
H       -1.2185580441   -4.1602850982   -5.4617841245
27   
torsion grid (-120,)
C        0.3563995918   -3.0965396525   -6.4707485988
C        0.7628304107   -1.7045506479   -4.8611047283
C       -0.3091977747   -2.5262385256   -4.4572637871
C       -1.3545312005    1.5232399354   -1.5383672202
C       -0.3337511869    1.1793870742   -5.9025493860
C       -0.1813299066    1.7967938161   -2.4816534449
C       -0.9439077403    0.6619389287   -4.5940195234
N        1.1530964930   -2.0975936358   -6.1247323948
N        1.5468252093   -0.8294884978   -4.1443662111
N        1.1870345554    0.1352928868   -3.3993258689
N       -0.5421861535   -3.4067232776   -5.5030873948
N        0.0023403281    0.7214102160   -3.4667271525
N       -1.0596200002   -2.6138288126   -3.2798808938
O       -1.9556058404   -3.4900403254   -3.2362011025
O       -0.8012993513   -1.8147690067   -2.3595942581
H        0.3978746825   -3.6239934810   -7.4157215125
H       -1.2078552470    0.5775072689   -1.0115764625
H       -1.4326647775    2.3333286138   -0.8057694743
H       -2.3061961332    1.4670725995   -2.0761975413
H        0.5004212312    0.5638585057   -6.2436096731
H       -1.1008737216    1.1726840205   -6.6833953684
H        0.0228104490    2.2067714807   -5.7800986562
H       -0.3278130188    2.7442151812   -3.0170609565
H        0.7550231574    1.8628941858   -1.9274002232
H       -1.7846418734    1.2942480477   -4.3035386519
H       -1.3451316177   -0.3441344928   -4.7150614009
H       -1.2419904367   -4.1397304786   -5.4761526179
27   
torsion grid (-105,)
C        0.4349293057   -3.1100570468   -6.4234529587
C        0.7704052557   -1.7121291912   -4.8030479935
C       -0.3307072074   -2.5190802828   -4.4521895460
C       -1.2466524864    1.4276092280   -1.4440736135
C       -0.2955759605    1.1537207705   -5.9446169557
C       -0.2181416793    1.8371102527   -2.5002992604
C       -0.9242625411    0.6806585035   -4.6284405224
N        1.2230113703   -2.1169541493   -6.0419900889
N        1.5280064788   -0.8490173974   -4.0448946194
N        1.1544254726    0.1390299992   -3.3379463922
N       -0.5165354765   -3.4052195742   -5.5028946820
N        0.0092183058    0.7785929875   -3.4940118122
N       -1.1400175998   -2.5888405879   -3.3140314387
O       -2.0355820435   -3.4660075018   -3.3001053408
O       -0.9303716013   -1.7724633496   -2.3959445835
H        0.5204121973   -3.6436401716   -7.3620136758
H       -0.9129519373    0.5316318891   -0.9163960609
H       -1.3799683763    2.2408005644   -0.7225445840
H       -2.2199711376    1.2084070037   -1.8942590843
H        0.5478014125    0.5299872003   -6.2465170456
H       -1.0480617748    1.1140589569   -6.7387182221
H        0.0543457170    2.1866056407   -5.8533810938
H       -0.5365674757    2.7430345349   -3.0290660264
H        0.7490752281    2.0380983634   -2.0375590292
H       -1.7690574178    1.3214577394   -4.3682350443
H       -1.3230409695   -0.3289336208   -4.7210682668
H       -1.2239682157   -4.1312763030   -5.5089919593
27   
torsion grid (-90,)
C        0.5057146102   -3.1188891371   -6.3740357347
C        0.7494556117   -1.7130319155   -4.7441566635
C       -0.3743288912   -2.5129114883   -4.4561602463
C       -1.1345137657    1.3756447029   -1.3479355540
C       -0.2577008107    1.1562277237   -5.9803464624
C       -0.3026148861    1.8806574333   -2.5278727080
C       -0.9318567425    0.6981066349   -4.6817633631
N        1.2739493598   -2.1266287696   -5.9512597795
N        1.4671566141   -0.8558634738   -3.9407268370
N        1.0705525515    0.1512142095   -3.2755591299
N       -0.5003507529   -3.4051605557   -5.5105567334
N       -0.0398355189    0.8227850806   -3.5165980973
N       -1.2534353218   -2.5665910371   -3.3702255832
O       -2.1449581178   -3.4472102722   -3.3971113933
O       -1.1061256740   -1.7316466633   -2.4563828132
H        0.6448708509   -3.6578843983   -7.3030369005
H       -0.6123748079    0.5609088194   -0.8412887106
H       -1.3021079597    2.1901386197   -0.6348051258
H       -2.1060313750    0.9957195733   -1.6777133296
H        0.6077032038    0.5393979184   -6.2310334554
H       -0.9740196852    1.0870138739   -6.8053865829
H        0.0722017150    2.1962823212   -5.8966251611
H       -0.8019421310    2.7065557995   -3.0433338872
H        0.6689789263    2.2393308916   -2.1818732589
H       -1.7948806806    1.3296155623   -4.4627189806
H       -1.3122308845   -0.3179043056   -4.7739896820
H       -1.2094784473   -4.1281615468   -5.5557466814
27   
torsion grid (-75,)
C        0.5501166609   -3.1595848553   -6.2933186560
C        0.7130358217   -1.7298631758   -4.6743160804
C       -0.4320204163   -2.5166258264   -4.4377711458
C       -0.9453805929    1.3650146016   -1.2108212505
C       -0.1892209584    1.1472475522   -5.9813141020
C       -0.4202746890    1.8952173195   -2.5446400812
C       -0.9532415187    0.6913976385   -4.7322744769
N        1.3016393429   -2.1669393177   -5.8430621839
N        1.3917706951   -0.8617031436   -3.8492101445
N        0.9597597730    0.1495689642   -3.2132536446
N       -0.5057292427   -3.4242219498   -5.4837882038
N       -0.1457161787    0.8090313504   -3.5057886316
N       -1.3710983674   -2.5496443016   -3.4017850606
O       -2.2697273497   -3.4208479765   -3.4708075576
O       -1.2644390301   -1.7086201028   -2.4881495112
H        0.7368018880   -3.7143446839   -7.2045330147
H       -0.2130808724    0.6894936600   -0.7625654547
H       -1.1232986390    2.1989326721   -0.5231182071
H       -1.8780173858    0.8105256319   -1.3456999852
H        0.6924444207    0.5311547538   -6.1693753444
H       -0.8457176543    1.0739731729   -6.8544077762
H        0.1320230226    2.1882221235   -5.8780452213
H       -1.1387964556    2.5726432758   -3.0110512244
H        0.5101394748    2.4499326029   -2.3925997053
H       -1.8283798524    1.3237451824   -4.5757009131
H       -1.3277318608   -0.3241813322   -4.8525076115
H       -1.2167908340   -4.1430451930   -5.5570748171
27   
torsion grid (-60,)
C        0.5929369237   -3.1382598200   -6.2934107857
C        0.6585249473   -1.7279564449   -4.6516573051
C       -0.4968140934   -2.5185498419   -4.4902815117
C       -0.7840000704    1.4185235547   -1.1261464338
C       -0.1082119860    1.1936298966   -5.9440819688
C       -0.6219360534    1.8773687170   -2.5734882264
C       -0.9938641630    0.6907617331   -4.7971622431
N        1.3155272191   -2.1507698203   -5.7886211465
N        1.2846848832   -0.8597685237   -3.7853179023
N        0.7992619980    0.1318398898   -3.1579905724
N       -0.5083535445   -3.4125966247   -5.5499407209
N       -0.3211695117    0.7529048439   -3.4867823369
N       -1.4972427868   -2.5665026337   -3.5125943872
O       -2.3995952170   -3.4244401252   -3.6600015496
O       -1.4364671936   -1.7518080784   -2.5724048775
H        0.8334438982   -3.6828668957   -7.1980752347
H        0.1412386911    0.9690191714   -0.7604514996
H       -1.0289195526    2.2786957736   -0.4939935813
H       -1.5830967133    0.6769791211   -1.0444303490
H        0.7867305698    0.5814006585   -6.0717083659
H       -0.6762354923    1.1598347400   -6.8793405800
H        0.2020197059    2.2280406339   -5.7674844433
H       -1.5458945457    2.3353505097   -2.9308787823
H        0.1740294711    2.6272664996   -2.6550730914
H       -1.8807836465    1.3192104133   -4.7073905721
H       -1.3527648186   -0.3186841724   -4.9959535959
H       -1.2137107318   -4.1303548986   -5.6728450678
27   
torsion grid (-45,)
C        0.6564763509   -3.1181455505   -6.3360818606
C        0.6744183227   -1.7358116165   -4.6692169144
C       -0.4874883740   -2.5248867441   -4.5577242745
C       -0.5234100905    1.5336711978   -1.1353795083
C        0.0023809985    1.2110730337   -5.9284123678
C       -0.6874512974    1.8541455160   -2.6177500696
C       -0.9510131360    0.6928538751   -4.8443356854
N        1.3658189085   -2.1421227415   -5.7916233780
N        1.2737318371   -0.8817148451   -3.7697086163
N        0.7658900061    0.0990998750   -3.1434858919
N       -0.4688251477   -3.4003240676   -5.6325858043
N       -0.3531609063    0.7117183012   -3.4959072858
N       -1.5214507431   -2.5835413366   -3.6156073342
O       -2.4262036311   -3.4291118772   -3.8128580366
O       -1.4846811702   -1.7912191281   -2.6558571610
H        0.9240749960   -3.6487983367   -7.2414144518
H        0.5206746297    1.3466144640   -0.8813599999
H       -0.8814626085    2.3829866102   -0.5441603104
H       -1.1078757231    0.6481552237   -0.8715040412
H        0.8868626556    0.5803981093   -6.0365364011
H       -0.5210722999    1.2256021507   -6.8897134145
H        0.3294377607    2.2302093094   -5.7007952643
H       -1.7310536713    2.1013088464   -2.8253590135
H       -0.0792074522    2.7242856332   -2.9005762954
H       -1.8310887336    1.3350000972   -4.7858442211
H       -1.3143898470   -0.3052369707   -5.0884610261
H       -1.1735035380   -4.1118651843   -5.7906537475
27   
torsion grid (-30,)
C        0.7009540770   -3.1207513873   -6.3500247067
C        0.6623360134   -1.7612229597   -4.6641899693
C       -0.5125324334   -2.5386290692   -4.6144829567
C       -0.3969201611    1.6029913047   -1.1529676814
C        0.0525207252    1.1973469181   -5.8972233803
C       -0.7953269327    1.7901350716   -2.6116020699
C       -0.9458476375    0.6793969742   -4.8545795311
N        1.3966956495   -2.1604446212   -5.7621876402
N        1.2316298708   -0.9267665730   -3.7294129362
N        0.7025465347    0.0427555484   -3.1002608516
N       -0.4566833248   -3.3997824945   -5.6999378614
N       -0.3931592385    0.6699650496   -3.4873787106
N       -1.5830470402   -2.6035816044   -3.7156032732
O       -2.4850906286   -3.4397232739   -3.9610899039
O       -1.5793197170   -1.8265277229   -2.7421339124
H        1.0014690611   -3.6418176411   -7.2506157796
H        0.6857490116    1.6161331238   -1.0230955427
H       -0.8320450874    2.4173360971   -0.5644533527
H       -0.7770828810    0.6517476712   -0.7714322484
H        0.9294550239    0.5536975383   -5.9868656077
H       -0.4383705753    1.2374401182   -6.8747611306
H        0.3892456899    2.2066526580   -5.6413288112
H       -1.8847908577    1.8545435547   -2.6864794922
H       -0.3833370241    2.7269849457   -3.0132036054
H       -1.8139935461    1.3396892333   -4.8133789523
H       -1.3209654899   -0.3074911865   -5.1256367600
H       -1.1609194437   -4.1017945082   -5.8974181367
27   
torsion grid (-15,)
C        0.7169186678   -3.1322437161   -6.3122905763
C        0.6404787626   -1.7823385933   -4.6194169953
C       -0.5479172244   -2.5418032656   -4.6167124538
C       -0.2757441817    1.7079249228   -1.1642728022
C        0.0815458530    1.1871282074   -5.8505943971
C       -0.8622359004    1.7530103949   -2.5682630905
C       -0.9398489650    0.6801093655   -4.8255499797
N        1.4060250558   -2.1859074519   -5.6947317450
N        1.1899758943   -0.9667500838   -3.6583514272
N        0.6536528023    0.0019063745   -3.0311514254
N       -0.4667399856   -3.3977923167   -5.7051073659
N       -0.4042253178    0.6635394410   -3.4527530378
N       -1.6484235152   -2.5961542393   -3.7554751083
O       -2.5498078780   -3.4238312423   -4.0306766971
O       -1.6703607863   -1.8190785058   -2.7813827614
H        1.0408027028   -3.6521814869   -7.2054375587
H        0.8050536481    1.8572002149   -1.1704153587
H       -0.7385823737    2.5039933306   -0.5719915480
H       -0.4837846348    0.7481248391   -0.6855533133
H        0.9506627036    0.5312325127   -5.9271187250
H       -0.3925354209    1.2374294423   -6.8358880413
H        0.4284271216    2.1906418430   -5.5852725113
H       -1.9532057855    1.6691243556   -2.5169009974
H       -0.6314917714    2.7125069518   -3.0519898583
H       -1.7997513184    1.3522017893   -4.7938172476
H       -1.3245145311   -0.3007673913   -5.1038696408
H       -1.1737526357   -4.0880865653   -5.9315722983
27   
torsion grid (0,)
C        0.6901965779   -3.1413246012   -6.2486138020
C        0.5849646611   -1.7953512769   -4.5536500578
C       -0.6187705196   -2.5299773887   -4.5944987165
C       -0.2050288163    1.8328728180   -1.1762454884
C        0.1022658779    1.1889303064   -5.7985576816
C       -0.9335207508    1.7350760528   -2.5090361127
C       -0.9415209897    0.6984147154   -4.7884836858
N        1.3775206074   -2.2113394378   -5.6045712901
N        1.1186236403   -1.0002520277   -3.5680589893
N        0.5843067682   -0.0242734835   -2.9491423414
N       -0.5182823453   -3.3846583184   -5.6826716735
N       -0.4229366071    0.6839137381   -3.4098039921
N       -1.7474575813   -2.5628825418   -3.7705355259
O       -2.6525247542   -3.3776167536   -4.0706510370
O       -1.7910298097   -1.7778878763   -2.8027334737
H        1.0331552021   -3.6646896738   -7.1326229737
H        0.8525595880    2.0680532268   -1.3121506664
H       -0.6714632504    2.6307317334   -0.5892594564
H       -0.2743440852    0.8985631871   -0.6156518663
H        0.9671927731    0.5250550650   -5.8515768235
H       -0.3518004481    1.2343262623   -6.7934816181
H        0.4522721835    2.1917445767   -5.5345756186
H       -1.9968608750    1.5244447758   -2.3444579069
H       -0.8695438128    2.6914288672   -3.0442866385
H       -1.7949627066    1.3792889660   -4.7723550873
H       -1.3324955304   -0.2791697676   -5.0680492397
H       -1.2308213251   -4.0598584560   -5.9355619562
27   
torsion grid (15,)
C        0.7172560802   -3.1422805538   -6.2496628828
C        0.5714395537   -1.8193718703   -4.5399591719
C       -0.6370655383   -2.5420532032   -4.6284584128
C       -0.1305237922    1.9240241891   -1.2214289076
C        0.1327824051    1.1845933252   -5.7629619065
C       -0.9869611753    1.6666920111   -2.4544988897
C       -0.9287042719    0.6916823008   -4.7728292404
N        1.3923158493   -2.2271865408   -5.5720239288
N        1.0815300383   -1.0479283139   -3.5238706000
N        0.5412669064   -0.0758933527   -2.9041583852
N       -0.5099270705   -3.3831897157   -5.7244856740
N       -0.4284517298    0.6684415426   -3.3873394399
N       -1.7902117180   -2.5753353308   -3.8394145828
O       -2.6889689503   -3.3840611314   -4.1720830717
O       -1.8606656656   -1.7953022745   -2.8688020904
H        1.0827607626   -3.6560532720   -7.1302625129
H        0.8745964377    2.2515727484   -1.4984819881
H       -0.6077360540    2.7128290833   -0.6309081278
H       -0.0362816883    1.0310801370   -0.6017239714
H        0.9980870170    0.5201122923   -5.8018709966
H       -0.3030949523    1.2328011929   -6.7659101487
H        0.4785525619    2.1863257670   -5.4895883288
H       -1.9879000398    1.3246513360   -2.1643638793
H       -1.1097391859    2.5984491727   -3.0182875132
H       -1.7812212949    1.3734036972   -4.7671394706
H       -1.3174335139   -0.2829673339   -5.0644307610
H       -1.2194560453   -4.0490823768   -6.0085322168
27   
torsion grid (30,)
C        0.7064999908   -3.1479452367   -6.2348303790
C        0.5205553372   -1.8545362816   -4.5069745575
C       -0.6961312507   -2.5529191543   -4.6534913275
C       -0.0671015093    2.0587544022   -1.3004498594
C        0.1826933093    1.1763210207   -5.6963380355
C       -1.0365218732    1.6118788651   -2.3902884782
C       -0.9187940870    0.6892798731   -4.7476322708
N        1.3719725487   -2.2579749494   -5.5152691331
N        1.0056935862   -1.1144477993   -3.4550919825
N        0.4663087207   -0.1396331936   -2.8408487612
N       -0.5431097286   -3.3765071427   -5.7593147088
N       -0.4636788254    0.6418205876   -3.3466708345
N       -1.8788347440   -2.5776011114   -3.9084594766
O       -2.7772094508   -3.3669507336   -4.2849801882
O       -1.9729991863   -1.8091205334   -2.9308749020
H        1.0952286371   -3.6516891185   -7.1112534145
H        0.8468284509    2.4725567498   -1.7361264417
H       -0.5519666642    2.8357033549   -0.7004974543
H        0.2122549234    1.2336989727   -0.6445488044
H        1.0410990291    0.5018897732   -5.7095242814
H       -0.2167169612    1.2360907883   -6.7138331632
H        0.5299730640    2.1719913437   -5.4036603791
H       -1.9374706937    1.1663746413   -1.9518904709
H       -1.3510965694    2.4804686528   -2.9757041750
H       -1.7612558765    1.3823722025   -4.7643922701
H       -1.3114530768   -0.2759427672   -5.0638583641
H       -1.2529496815   -4.0242739344   -6.0819201870
27   
torsion grid (45,)
C        0.7532318015   -3.1410051296   -6.2574387578
C        0.4955792545   -1.9200844250   -4.4869056448
C       -0.7143842508   -2.6066324702   -4.7138306905
C        0.0347373014    2.2224281671   -1.5108067263
C        0.2462734709    1.1750305399   -5.5573908187
C       -1.0610577782    1.5226150416   -2.3141287414
C       -0.9114289853    0.6436005164   -4.7034171262
N        1.3893355641   -2.2854837399   -5.4725989657
N        0.9376047547   -1.2203211259   -3.3878002266
N        0.3795292156   -0.2603633366   -2.7693136132
N       -0.5167544000   -3.3825870937   -5.8461830461
N       -0.5496886125    0.5239079153   -3.2791792346
N       -1.9319586935   -2.6516767710   -4.0263998107
O       -2.8200050022   -3.4085777841   -4.4852059384
O       -2.0619842470   -1.9326544627   -3.0170127994
H        1.1782980531   -3.6102216510   -7.1361285620
H        0.7445600283    2.7267445539   -2.1742496880
H       -0.4228053970    2.9731232881   -0.8581308014
H        0.5858601766    1.5114221876   -0.8943764935
H        1.1074168972    0.5039399824   -5.5434255748
H       -0.0867362339    1.2763173074   -6.5953639505
H        0.5682336509    2.1584865931   -5.2015110635
H       -1.7654037859    1.0174373243   -1.6447248072
H       -1.6286911671    2.2552939525   -2.8905591479
H       -1.7551654545    1.3334782125   -4.7428652828
H       -1.2774238974   -0.3063351158   -5.0899283879
H       -1.2148612742   -4.0116610518   -6.2264391520
27   
torsion grid (60,)
C        0.7777703540   -3.0903232087   -6.2612060960
C        0.4818692716   -1.9400586341   -4.4502438368
C       -0.7336194184   -2.5859538345   -4.7498912003
C        0.0814534576    2.3990652798   -1.7466092120
C        0.3681281595    1.1724860847   -5.4071669981
C       -1.0406173160    1.4776461010   -2.2290461609
C       -0.8558703912    0.6634657632   -4.6345086436
N        1.4036771122   -2.2860444280   -5.4164713610
N        0.8991511195   -1.2879934700   -3.3105822814
N        0.3351681421   -0.3377238410   -2.6852313625
N       -0.5124502024   -3.3161313909   -5.9074362426
N       -0.5922724930    0.4547100359   -3.1980398863
N       -1.9778560545   -2.6347504622   -4.1091850347
O       -2.8688061059   -3.3344976471   -4.6465119836
O       -2.1237121926   -1.9771733061   -3.0622972824
H        1.2244329271   -3.5326500572   -7.1430653020
H        0.5117186764    2.9729960583   -2.5737547847
H       -0.3128237908    3.1061023315   -1.0092355772
H        0.8758713358    1.8137616505   -1.2792038722
H        1.1979148270    0.4638052333   -5.3826928285
H        0.0900575648    1.3290725839   -6.4544818618
H        0.7158036172    2.1254702172   -4.9981615875
H       -1.4841315546    0.9487382390   -1.3814847782
H       -1.8389995539    2.0459537218   -2.7090161829
H       -1.6589761701    1.3998557231   -4.6845747136
H       -1.2486558520   -0.2473104152   -5.0861245695
H       -1.2112760049   -3.9095026504   -6.3403164824
27   
torsion grid (75,)
C        0.7954189929   -3.0697692510   -6.2848298818
C        0.5090508566   -1.9591656103   -4.4470320470
C       -0.7205646558   -2.5618850650   -4.7787528292
C       -0.0092160038    2.5208512366   -1.9109215870
C        0.4779376545    1.1384210495   -5.3302479418
C       -1.0148606668    1.3950822506   -2.1622374713
C       -0.7787478668    0.6752235761   -4.5808071124
N        1.4328572077   -2.3071429899   -5.4110147660
N        0.9315745062   -1.3428101969   -3.2896068602
N        0.3695422100   -0.4049572918   -2.6436229760
N       -0.5053659280   -3.2664365543   -5.9531501481
N       -0.5516359938    0.4023313579   -3.1490351160
N       -1.9727451660   -2.6030045652   -4.1522118162
O       -2.8757997235   -3.2564936260   -4.7267491270
O       -2.1135736227   -1.9840507567   -3.0817315698
H        1.2405601640   -3.5015636799   -7.1726582151
H        0.1643195404    3.1183293622   -2.8116520779
H       -0.3858854497    3.1898448648   -1.1300969269
H        0.9452079187    2.1029962206   -1.5801184700
H        1.2641850797    0.3821650473   -5.3399271183
H        0.2092121860    1.3563026838   -6.3690187473
H        0.8835653982    2.0494782308   -4.8822320402
H       -1.2106652418    0.8499207759   -1.2374747246
H       -1.9712964817    1.7841693056   -2.5189077782
H       -1.5329097267    1.4635448713   -4.6094501316
H       -1.2235654295   -0.1933737241   -5.0687657421
H       -1.2152940115   -3.8285097793   -6.4091653078
27   
torsion grid (90,)
C        0.7464335970   -3.0897647512   -6.3051590796
C        0.4762201364   -2.0107220354   -4.4457931640
C       -0.7698692947   -2.5621782946   -4.8061105874
C       -0.1367047405    2.5982281025   -2.0245773460
C        0.5362778628    1.1006025678   -5.2630771325
C       -0.9847270402    1.3260647914   -2.0948303334
C       -0.7336948525    0.6667820393   -4.5190401765
N        1.3990394733   -2.3690225984   -5.4073629153
N        0.9056066491   -1.4382330426   -3.2697743518
N        0.3675802425   -0.5012110307   -2.6010910458
N       -0.5642751635   -3.2484654296   -5.9933022842
N       -0.5102540120    0.3575709690   -3.0954550089
N       -2.0287298507   -2.5768591355   -4.1933400880
O       -2.9447276305   -3.1941306126   -4.7872856248
O       -2.1622366472   -1.9738139324   -3.1123295169
H        1.1873196672   -3.5167623418   -7.1974459557
H       -0.1652215323    3.1606145785   -2.9633133109
H       -0.5143596432    3.2524944363   -1.2319310228
H        0.9041635891    2.3478345377   -1.8002421086
H        1.2946421992    0.3168551413   -5.2911209372
H        0.2728562975    1.3499217253   -6.2960872413
H        0.9759118266    1.9862696954   -4.7968340135
H       -0.9746157146    0.8070762855   -1.1362774669
H       -2.0271943522    1.5564458944   -2.3333033907
H       -1.4593344259    1.4826080379   -4.5261462849
H       -1.2117781896   -0.1746260627   -5.0228224951
H       -1.2870998427   -3.7763517106   -6.4693931210
27   
torsion grid (105,)
C        0.7841361212   -3.0867892936   -6.3581890859
C        0.5100395288   -2.0347308340   -4.4844720694
C       -0.7432845430   -2.5486447807   -4.8748592380
C       -0.2370554911    2.6741035595   -2.1309683630
C        0.6360318691    1.1063318906   -5.2528293080
C       -0.8948918522    1.2933263161   -2.0729932303
C       -0.6331466093    0.6748356123   -4.5074658185
N        1.4395973970   -2.3973235778   -5.4379097830
N        0.9316181415   -1.5037019594   -3.2874709637
N        0.4187143628   -0.5637544543   -2.6027062499
N       -0.5347567760   -3.2201375676   -6.0703052030
N       -0.3954145422    0.3569555602   -3.0898335124
N       -2.0105060425   -2.5386930406   -4.2815698459
O       -2.9306088797   -3.1356788780   -4.8893750365
O       -2.1479557714   -1.9323464300   -3.2020361467
H        1.2291573174   -3.5081326805   -7.2511257592
H       -0.4250800621    3.1807548430   -3.0827058566
H       -0.6417718588    3.3064176112   -1.3340615565
H        0.8447933871    2.5920029088   -1.9898292167
H        1.3897679087    0.3175772598   -5.2802405634
H        0.3748987360    1.3584232793   -6.2857170193
H        1.0793949144    1.9889921029   -4.7841246268
H       -0.7110361862    0.8183069788   -1.1096671472
H       -1.9796809696    1.3727329447   -2.2025508309
H       -1.3576735081    1.4916595498   -4.5056660206
H       -1.1165638819   -0.1619333255   -5.0119617287
H       -1.2614821218   -3.7227334198   -6.5672487157
27   
torsion grid (120,)
C        0.7310022369   -3.1226004371   -6.3542385201
C        0.4758049629   -2.0750959695   -4.4749781844
C       -0.7901331661   -2.5453035079   -4.8804715251
C       -0.3754436915    2.7181217814   -2.1683298836
C        0.6962387335    1.0915017490   -5.2256637374
C       -0.8287807699    1.2648341534   -2.0144857248
C       -0.5682113952    0.6746374724   -4.4656760853
N        1.4007878017   -2.4606436292   -5.4237446000
N        0.9011863115   -1.5773359449   -3.2659858542
N        0.4290714023   -0.6236827751   -2.5710072305
N       -0.5937282916   -3.2164180290   -6.0784863688
N       -0.3062323573    0.3630232187   -3.0518037942
N       -2.0596164253   -2.4950654068   -4.2960810631
O       -2.9930041241   -3.0714459698   -4.9030194129
O       -2.1867853136   -1.8738351465   -3.2228840254
H        1.1698952619   -3.5512616714   -7.2467480780
H       -0.7212667217    3.1677953892   -3.1037998568
H       -0.7878477220    3.3128526253   -1.3470368130
H        0.7156002837    2.7934534096   -2.1310835812
H        1.4417141920    0.2942737015   -5.2514474075
H        0.4307221484    1.3392665784   -6.2584757347
H        1.1502802019    1.9733255778   -4.7651374425
H       -0.4912734887    0.8507010862   -1.0645906855
H       -1.9231225218    1.2003083292   -2.0357364930
H       -1.2886619055    1.4941602839   -4.4615290039
H       -1.0624926390   -0.1619090758   -4.9577153235
H       -1.3315441530   -3.6920717854   -6.5854021633
27   
torsion grid (135,)
C       -2.0524878701   -3.4606227533   -2.7856679455
C       -0.3512204681   -2.2799674573   -3.4172907695
C       -1.0610922600   -2.6606903627   -4.5763265481
C       -1.1814857018    1.9279566797   -3.9434273938
C        2.1881423300    2.1975642077   -4.4825799649
C       -0.8224602078    0.4584047366   -4.1792240126
C        1.3861026109    1.1637399986   -5.2750973523
N       -0.9992930964   -2.8071419383   -2.3202657243
N        0.9006036612   -1.7204512207   -3.2784744764
N        1.3620648513   -0.7065587169   -3.8902256838
N       -2.1420534692   -3.4122217408   -4.1377109482
N        0.6098011517    0.2414381934   -4.4275615031
N       -0.8453236452   -2.4783701085   -5.9458738789
O       -1.6880575376   -2.9812683428   -6.7277542538
O        0.1572038167   -1.8317153858   -6.3072549613
H       -2.7763368348   -3.9848530580   -2.1739063297
H       -0.9766777525    2.5605692661   -4.8105238473
H       -2.2543481168    1.9910930713   -3.7367916895
H       -0.6454939216    2.3314337327   -3.0805578782
H        2.8615069876    1.6928331753   -3.7847471821
H        2.7916724085    2.8020205621   -5.1679076977
H        1.5395718575    2.8702072901   -3.9153008444
H       -1.0839864330   -0.1034022416   -3.2830034553
H       -1.4119398902    0.0466971821   -5.0078041372
H        0.6840693142    1.6417708356   -5.9612060394
H        2.0511509490    0.5477461480   -5.8819180877
H       -2.8079504713   -3.8538056745   -4.7616374481
27   
torsion grid (150,)
C       -2.0260438309   -3.4846398878   -2.7582805102
C       -0.3417071177   -2.3125352901   -3.4455257864
C       -1.1101175236   -2.6596723302   -4.5767490770
C       -1.2195338695    1.9023201944   -4.0860224764
C        2.2227013585    2.1954947308   -4.3833166682
C       -0.7816512553    0.4370532528   -4.1069842475
C        1.4256369901    1.1906349578   -5.2168361213
N       -0.9444331610   -2.8536318911   -2.3292688692
N        0.9259380466   -1.7825453295   -3.3599192953
N        1.3884049967   -0.7607416284   -3.9577328104
N       -2.1776767685   -3.4099997679   -4.1040143196
N        0.6463405403    0.2409084461   -4.4017256493
N       -0.9462569167   -2.4562406077   -5.9503815461
O       -1.8186655908   -2.9454161106   -6.7074692254
O        0.0405809397   -1.8000294220   -6.3380412573
H       -2.7284441738   -4.0107059071   -2.1234991861
H       -1.1242965467    2.3853679425   -5.0610374381
H       -2.2773186467    1.9351855484   -3.8079134295
H       -0.6611370662    2.4839125729   -3.3484272496
H        2.8949001117    1.6662690252   -3.7024715731
H        2.8267729011    2.8275816834   -5.0427895250
H        1.5709538499    2.8449641275   -3.7927817216
H       -0.9659426684   -0.0053813124   -3.1248495357
H       -1.3932767890   -0.1121946682   -4.8312980556
H        0.7338123504    1.6925314721   -5.8944523978
H        2.0958253624    0.5924256577   -5.8350874988
H       -2.8775371035   -3.8314221765   -4.7040962803
27   
torsion grid (165,)
C       -1.9135570432   -3.4989262614   -2.7008162492
C       -0.2945357454   -2.3241447900   -3.5283693036
C       -1.1619780787   -2.6626062547   -4.5871816009
C       -1.2551512164    1.8752829650   -4.3435352289
C        2.2620187921    2.1683468811   -4.1617720642
C       -0.7211989141    0.4648019778   -4.0993263451
C        1.4868039772    1.3051365551   -5.1599791292
N       -0.7967102173   -2.8725252329   -2.3662729655
N        0.9799315997   -1.8071450395   -3.5512446542
N        1.4219479131   -0.7736808223   -4.1431001564
N       -2.1840415996   -3.4160120228   -4.0276775550
N        0.6793677632    0.2561114626   -4.5115619449
N       -1.1205487800   -2.4386332279   -5.9666317671
O       -2.0534812160   -2.9207095019   -6.6525373843
O       -0.1737940692   -1.7696993991   -6.4257682075
H       -2.5583174299   -4.0270816192   -2.0091472588
H       -1.3238137775    2.1065238838   -5.4092864440
H       -2.2679820510    1.9259371787   -3.9325226361
H       -0.6588606067    2.6469341161   -3.8509470341
H        2.9311415720    1.5416791258   -3.5659942739
H        2.8653687440    2.9084521393   -4.6979989997
H        1.5936347403    2.7035078557   -3.4805635540
H       -0.7861550528    0.2111135004   -3.0343658451
H       -1.3660102131   -0.2348997621   -4.6341609380
H        0.8235548685    1.9100201627   -5.7776549029
H        2.1750770819    0.7928308944   -5.8332468578
H       -2.9383217418   -3.8283168896   -4.5647377788
27   
torsion grid (180,)
C       -1.8219315941   -3.5424764434   -2.6680367223
C       -0.2611369459   -2.3807543168   -3.6164458171
C       -1.2255506096   -2.6832671847   -4.5980498986
C       -1.2455661158    1.7888890085   -4.5640036423
C        2.2020315346    2.1414342583   -3.9565637798
C       -0.6163120971    0.4907971137   -4.0613811048
C        1.5779196507    1.3238370289   -5.0905631203
N       -0.6676545290   -2.9420838284   -2.4240862339
N        1.0207088931   -1.8942712221   -3.7426236156
N        1.4574979430   -0.8461194307   -4.3061107020
N       -2.2076371251   -3.4295435541   -3.9639230407
N        0.7290108046    0.2212290121   -4.6065145200
N       -1.3159268067   -2.4024396880   -5.9653139642
O       -2.3165099567   -2.8475341343   -6.5760285278
O       -0.4104722820   -1.7208711435   -6.4831283861
H       -2.4118820702   -4.0731118445   -1.9309130155
H       -1.3524648270    1.7793947027   -5.6520838854
H       -2.2475115084    1.8693834423   -4.1316051287
H       -0.6878071803    2.6809293563   -4.2698600136
H        2.8252440605    1.4983929286   -3.3284832799
H        2.8311260365    2.9366384688   -4.3700589046
H        1.4417473400    2.6084977704   -3.3226270323
H       -0.5499382255    0.4847068948   -2.9644872838
H       -1.2790316000   -0.3231517211   -4.3430263149
H        0.9793814146    1.9517518625   -5.7514290870
H        2.3557948086    0.8607686872   -5.6978808261
H       -3.0173573820   -3.8137693738   -4.4374965296
