15   
torsion grid (-165,)
C       -0.0958154433    0.5882624846    1.3565218527
C       -0.4254628060    1.3727214110    0.0973778423
C        0.1069165435   -0.0413061329   -0.0018811166
C       -0.8141805481   -1.1579578279   -0.4459437614
N        1.4863500259   -0.2550524726   -0.3959889773
O        1.6540439713    0.1880572517   -1.7715700562
H        0.7796498160    0.8858982669    1.9291020157
H       -0.9126515917    0.2118140638    1.9655536554
H       -1.4705453162    1.5452602782   -0.1439388210
H        0.2429224407    2.1792739158   -0.1891249630
H       -0.8270025146   -1.2276564267   -1.5389013338
H       -1.8401839617   -0.9797460792   -0.1100359017
H       -0.4749573986   -2.1165241240   -0.0397457184
H        2.0839147227    0.3804509486    0.1328519251
H        2.0003929981   -0.6070317475   -2.2076055161
15   
torsion grid (-150,)
C       -0.0915474220    0.6043052482    1.3298664351
C       -0.4162245963    1.3585774642    0.0547581512
C        0.0983961988   -0.0617434812   -0.0177550899
C       -0.8418306383   -1.1849892974   -0.4074002382
N        1.4695511922   -0.2977168462   -0.4314865378
O        1.7250828549    0.3541268293   -1.7011377020
H        0.7906127245    0.9070847223    1.8891971041
H       -0.9102996464    0.2527861100    1.9513223187
H       -1.4601810223    1.5330067251   -0.1900298406
H        0.2605096369    2.1467618845   -0.2594520258
H       -0.8704664086   -1.2999759302   -1.4968946680
H       -1.8622851026   -0.9847013356   -0.0658583800
H       -0.5056840848   -2.1307492025    0.0294334696
H        2.1086551468    0.1539724888    0.2205240081
H        1.9991021053   -0.3842815695   -2.2684158787
15   
torsion grid (-135,)
C       -0.0850907523    0.6265710392    1.3005444482
C       -0.4134080543    1.3403010972    0.0060362038
C        0.0895746279   -0.0835861672   -0.0303733612
C       -0.8674953805   -1.2109931803   -0.3687350626
N        1.4522723024   -0.3429060518   -0.4746295951
O        1.8196906937    0.5080382321   -1.5852263852
H        0.8072451869    0.9407940100    1.8367308217
H       -0.9009286859    0.3038172514    1.9415808937
H       -1.4581564823    1.5089319604   -0.2394920483
H        0.2664340034    2.1107845350   -0.3409602558
H       -0.9250311397   -1.3541582439   -1.4538521111
H       -1.8772965564   -0.9979824706   -0.0029917564
H       -0.5258158152   -2.1491927072    0.0802425294
H        2.1126362313   -0.1035161983    0.2615940060
H        1.9987607590   -0.1304392960   -2.2937972012
15   
torsion grid (-120,)
C       -0.0676175324    0.6549236481    1.2652117002
C       -0.4189703641    1.3177274572   -0.0497928105
C        0.0795586761   -0.1057289152   -0.0427757286
C       -0.8946250148   -1.2335640261   -0.3294988916
N        1.4267949932   -0.4002690903   -0.5366127709
O        1.9348641055    0.6316141419   -1.4134245615
H        0.8407379080    0.9876819424    1.7618400071
H       -0.8704445868    0.3652775393    1.9382006900
H       -1.4682031898    1.4729287620   -0.2850425389
H        0.2553868253    2.0737311580   -0.4348223059
H       -0.9854869478   -1.3968001180   -1.4090976393
H       -1.8893583063   -1.0067317839    0.0681744652
H       -0.5488056557   -2.1681684607    0.1250233698
H        2.0830381174   -0.3945001532    0.2412799750
H        2.0165219101    0.1683417083   -2.2619918342
15   
torsion grid (-105,)
C       -0.0327437391    0.6915664418    1.2172631494
C       -0.4413887661    1.2901429141   -0.1170097691
C        0.0666251687   -0.1257971772   -0.0564365911
C       -0.9183057141   -1.2557850354   -0.2906270054
N        1.3833880068   -0.4588357827   -0.6257344293
O        2.0504727207    0.7041840839   -1.1781917120
H        0.8956317303    1.0578870709    1.6489920011
H       -0.8039648032    0.4382311524    1.9402110269
H       -1.5002976142    1.4243767933   -0.3199862915
H        0.2137666150    2.0387713994   -0.5458026370
H       -1.0553588996   -1.4228812967   -1.3639373076
H       -1.8912378349   -1.0245151902    0.1548605456
H       -0.5589918262   -2.1913469862    0.1534304825
H        2.0060097486   -0.6978536966    0.1454295031
H        2.0797861451    0.4983191191   -2.1257898400
15   
torsion grid (-90,)
C        0.0055648132    0.7250050864    1.1660896380
C       -0.4738431300    1.2748113955   -0.1715128728
C        0.0515461689   -0.1307844482   -0.0804631932
C       -0.9301583583   -1.2727788346   -0.2564037900
N        1.3306249283   -0.4746678811   -0.7220490643
O        2.1279482316    0.7171474382   -0.9554764621
H        0.9492086350    1.1194104010    1.5336835567
H       -0.7278778686    0.4924737505    1.9337999276
H       -1.5422791731    1.3941932260   -0.3292795559
H        0.1531836838    2.0235482113   -0.6408092483
H       -1.1206656015   -1.4474436357   -1.3198302046
H       -1.8791036552   -1.0466054374    0.2393515279
H       -0.5433029441   -2.2034886549    0.1766399444
H        1.8998364514   -0.9414344871   -0.0138064955
H        2.1927087568    0.7370776800   -1.9232625823
15   
torsion grid (-75,)
C        0.0260419925    0.7496345567    1.1262707236
C       -0.5065388255    1.2773867007   -0.2040184710
C        0.0360330466   -0.1191281848   -0.1109016655
C       -0.9252897142   -1.2846164409   -0.2267898290
N        1.2860762325   -0.4504274182   -0.8043167964
O        2.1828810678    0.6896126315   -0.7891867698
H        0.9756848617    1.1603185246    1.4554676254
H       -0.6805739174    0.5176856762    1.9188140002
H       -1.5802059093    1.3916795659   -0.3262430594
H        0.0981669740    2.0282407055   -0.7003835908
H       -1.1526014081   -1.4906032321   -1.2774370732
H       -1.8595975723   -1.0649887457    0.2976762440
H       -0.5042734228   -2.1957751854    0.2170612208
H        1.7880711566   -1.1092126139   -0.2047191817
H        2.3095163761    0.8666572699   -1.7346222512
15   
torsion grid (-60,)
C        0.0354517482    0.7691691056    1.0968934836
C       -0.5401205104    1.2888732924   -0.2199629910
C        0.0215949108   -0.0996160811   -0.1412885253
C       -0.9106843789   -1.2919405481   -0.1980362325
N        1.2506783698   -0.4074866725   -0.8753746087
O        2.2339767502    0.6318014496   -0.6658643660
H        0.9866848631    1.1905390553    1.4037705151
H       -0.6497698239    0.5251838150    1.9045173324
H       -1.6170937599    1.3993478149   -0.3134514176
H        0.0451183048    2.0429997346   -0.7365728471
H       -1.1439217443   -1.5553544783   -1.2351197628
H       -1.8468157715   -1.0699314342    0.3212067179
H       -0.4632945919   -2.1685392988    0.2879068552
H        1.6744542173   -1.2199418084   -0.4216245221
H        2.4171323547    0.9313598638   -1.5703285054
15   
torsion grid (-45,)
C        0.0396015723    0.7911405365    1.0714556295
C       -0.5792925384    1.3017347937   -0.2284358228
C        0.0083859051   -0.0775477518   -0.1670304777
C       -0.8905075373   -1.2964507570   -0.1708923580
N        1.2231275235   -0.3547427795   -0.9365531567
O        2.2892929111    0.5397282075   -0.5588731591
H        0.9908071754    1.2231489366    1.3602656384
H       -0.6233339936    0.5301334812    1.8924147806
H       -1.6593751237    1.4029643504   -0.2924544110
H       -0.0175111165    2.0592685958   -0.7674771455
H       -1.1158712163   -1.6179559770   -1.1941675360
H       -1.8360999237   -1.0758219016    0.3310858115
H       -0.4191169570   -2.1333581639    0.3597512240
H        1.5575717243   -1.2792839302   -0.6583256456
H        2.5257125329    0.9535061689   -1.4040922459
15   
torsion grid (-30,)
C        0.0569631051    0.3226480249    1.2162756766
C       -0.1835728478    1.1650646004   -0.0320785676
C       -0.0500119476   -0.3285833959   -0.1441281407
C       -1.2650774575   -1.1870789273   -0.4298741092
N        1.1365642810   -0.8695712186   -0.8181356332
O        2.3285280064   -0.6929745747   -0.0262609615
H        1.0395395405    0.3778846730    1.6693463510
H       -0.7680197882    0.1793921072    1.9094883901
H       -1.1608659880    1.6160571945   -0.1827401278
H        0.6516487818    1.7616313534   -0.3892540992
H       -1.4157069505   -1.3172033526   -1.5085502666
H       -2.1675605430   -0.7239551035   -0.0223183724
H       -1.1589871513   -2.1780733630    0.0285351891
H        1.0190934717   -1.8812771360   -0.8834034312
H        2.9144059053   -0.2124947462   -0.6325368728
15   
torsion grid (-15,)
C        0.0851165968    0.3733499394    1.1887930033
C       -0.2439730520    1.1898443329   -0.0506096685
C       -0.0443293926   -0.3047588964   -0.1516898084
C       -1.2414084195   -1.1999040019   -0.4030032209
N        1.1634378926   -0.7744758681   -0.8521880781
O        2.2870836650   -0.9167607307    0.0521125374
H        1.0809718681    0.4629833566    1.6060237105
H       -0.7029478456    0.1956872940    1.9160484970
H       -1.2472308966    1.5928003756   -0.1625391650
H        0.5467549885    1.8122797927   -0.4600953956
H       -1.4225486445   -1.3266029071   -1.4778235188
H       -2.1472210878   -0.7686035842    0.0323959859
H       -1.0904484929   -2.1906897624    0.0428644408
H        0.9834900489   -1.7342348163   -1.1462851917
H        2.9701931895   -0.3794483885   -0.3796391031
15   
torsion grid (0,)
C        0.1151996905    0.4398909535    1.1613594466
C       -0.3071021113    1.2075723398   -0.0747049088
C       -0.0304064968   -0.2855505948   -0.1475875970
C       -1.2049896784   -1.2170706906   -0.3774772717
N        1.2011639601   -0.6604288274   -0.8582261359
O        2.1938336433   -1.1734797260    0.0868331507
H        1.1216820893    0.5828194430    1.5376729629
H       -0.6285840463    0.2369875232    1.9270044369
H       -1.3370001886    1.5464060824   -0.1515514777
H        0.4292390697    1.8564860874   -0.5385497382
H       -1.4314383181   -1.3016076136   -1.4476907687
H       -2.1059121374   -0.8438046468    0.1186073812
H       -0.9967316601   -2.2208418855    0.0128539801
H        0.9891982303   -1.5108266238   -1.3801289782
H        2.9687883718   -0.6250856853   -0.1140494574
15   
torsion grid (15,)
C        0.1297320737    0.4973516144    1.1461972944
C       -0.3474807969    1.2212915873   -0.0942101347
C       -0.0132400319   -0.2639524609   -0.1411077385
C       -1.1572159737   -1.2380090523   -0.3509562455
N        1.2339287997   -0.5686931591   -0.8405127999
O        2.0781027244   -1.3907728493    0.0399557618
H        1.1372391699    0.6930003826    1.4973438342
H       -0.5875625735    0.2834590645    1.9332589045
H       -1.3936139296    1.5088234064   -0.1574606113
H        0.3501177547    1.8923806524   -0.5844201449
H       -1.4113148433   -1.3100911208   -1.4157529083
H       -2.0573288256   -0.9142615578    0.1807186034
H       -0.8939784135   -2.2390614031    0.0107532482
H        1.0128893891   -1.2684732224   -1.5499442063
H        2.8966658944   -0.8715257462    0.0805021675
15   
torsion grid (30,)
C        0.1253226495    0.5432784979    1.1423354717
C       -0.3689539666    1.2321805894   -0.1127293228
C        0.0031829769   -0.2421033897   -0.1342556338
C       -1.1064371881   -1.2598748529   -0.3196434035
N        1.2623283470   -0.5086646740   -0.8128947006
O        1.9725939866   -1.5504001541   -0.0570899816
H        1.1262977191    0.7809807031    1.4876710141
H       -0.5879085677    0.3275605794    1.9323130998
H       -1.4231821899    1.4855464099   -0.1837899823
H        0.3093001366    1.9195989396   -0.6073227195
H       -1.3766563898   -1.3461612020   -1.3794917606
H       -2.0081335384   -0.9713129433    0.2295390912
H       -0.7919532877   -2.2462130378    0.0388726564
H        1.0470224349   -1.0341322211   -1.6618673510
H        2.7941172955   -1.0988171087    0.1927185472
15   
torsion grid (45,)
C        0.1049922915    0.5816358312    1.1463052691
C       -0.3797717838    1.2394934835   -0.1310087669
C        0.0143237512   -0.2245975740   -0.1234250743
C       -1.0621078974   -1.2813239711   -0.2841091497
N        1.2881595243   -0.4721278705   -0.7740410606
O        1.8855695130   -1.6626962591   -0.1698022142
H        1.0970177224    0.8463655108    1.4981559309
H       -0.6188948898    0.3725461749    1.9283151952
H       -1.4366760995    1.4727210499   -0.2251921039
H        0.2940823707    1.9347739428   -0.6211500822
H       -1.3328477817   -1.4011334798   -1.3407651026
H       -1.9699785575   -1.0105314895    0.2639552522
H       -0.7088853230   -2.2460818037    0.0931267877
H        1.0978790992   -0.8065428698   -1.7206263343
H        2.7040784785   -1.3110345398    0.2146264783
15   
torsion grid (60,)
C        0.0776386142    0.6104327410    1.1532051332
C       -0.3845146734    1.2414263459   -0.1480886353
C        0.0224695503   -0.2141591334   -0.1107087877
C       -1.0285135623   -1.3005586766   -0.2430097332
N        1.3122675880   -0.4507598308   -0.7323226773
O        1.8190802063   -1.7428524987   -0.3024107243
H        1.0594478769    0.8931564468    1.5193544806
H       -0.6636712798    0.4115877596    1.9216494694
H       -1.4409729294    1.4622480284   -0.2714706620
H        0.2921083904    1.9404171044   -0.6300317185
H       -1.2700496499   -1.4856365259   -1.2973822861
H       -1.9534456822   -1.0155796573    0.2678791844
H       -0.6652071177   -2.2347534140    0.1937423131
H        1.1681419901   -0.5815935714   -1.7353184083
H        2.6321610965   -1.5019089822    0.1692780766
15   
torsion grid (75,)
C        0.0470453202    0.6372446319    1.1588228133
C       -0.3885800069    1.2389320758   -0.1670271178
C        0.0289866452   -0.2083908505   -0.0967086611
C       -1.0004051394   -1.3184118119   -0.2014392525
N        1.3369019844   -0.4412828931   -0.6871354506
O        1.7639944032   -1.7998414682   -0.4485118217
H        1.0185283634    0.9355536905    1.5397630767
H       -0.7125371495    0.4506692933    1.9127245557
H       -1.4428008806    1.4501034207   -0.3220943711
H        0.2928355118    1.9390997567   -0.6419588353
H       -1.2165259333   -1.5618320382   -1.2492413279
H       -1.9385095952   -1.0201187879    0.2765520550
H       -0.6328428355   -2.2235184348    0.2877285703
H        1.2620280160   -0.3665672143   -1.7025624444
H        2.5588217141   -1.6801732344    0.0954532362
15   
torsion grid (90,)
C        0.0156652468    0.6654321286    1.1633189047
C       -0.3968693186    1.2339067402   -0.1861824786
C        0.0375326261   -0.2034675577   -0.0792182081
C       -0.9700961333   -1.3349039834   -0.1595558380
N        1.3664900247   -0.4387714380   -0.6356732159
O        1.7074990962   -1.8350757746   -0.6150018259
H        0.9758182319    0.9837505977    1.5568677327
H       -0.7584748444    0.4885407819    1.9050846869
H       -1.4486560823    1.4318199136   -0.3723941626
H        0.2869772337    1.9363023120   -0.6561701958
H       -1.1471774086   -1.6429172272   -1.1969244289
H       -1.9256809048   -1.0193256444    0.2701395344
H       -0.6112014472   -2.2060534530    0.3928334256
H        1.3754953278   -0.1661238577   -1.6182923828
H        2.4696187702   -1.8616474024   -0.0144665229
15   
torsion grid (105,)
C       -0.0161605528    0.7040098978    1.1650648670
C       -0.4109275788    1.2234768920   -0.2109819027
C        0.0511549531   -0.1996055060   -0.0506468410
C       -0.9349107743   -1.3492077996   -0.1161503741
N        1.4085069172   -0.4482723765   -0.5586233618
O        1.6433519827   -1.8438672000   -0.8027482738
H        0.9298757259    1.0516123366    1.5685008924
H       -0.8021663949    0.5357484711    1.8967361614
H       -1.4611163323    1.4004121497   -0.4263794884
H        0.2689955264    1.9282592360   -0.6851502389
H       -1.0743840689   -1.7063179048   -1.1420700325
H       -1.9053728776   -1.0232037736    0.2701513721
H       -0.5887386584   -2.1914947812    0.4875241871
H        1.5150825006    0.0057768732   -1.4645207891
H        2.3537500499   -2.0558603791   -0.1763411530
15   
torsion grid (120,)
C       -0.0485324537    0.7590659578    1.1599458141
C       -0.4253819678    1.1978450473   -0.2503087016
C        0.0723786843   -0.2039414048    0.0016078414
C       -0.8984639341   -1.3633841657   -0.0685266814
N        1.4652348127   -0.4828825541   -0.4241374425
O        1.5748868963   -1.7977374427   -1.0118701802
H        0.8777687862    1.1519418177    1.5690151551
H       -0.8445135945    0.6066655903    1.8843400477
H       -1.4745997705    1.3411177129   -0.4950601635
H        0.2466810666    1.8972258337   -0.7444987965
H       -1.0194419945   -1.7280998783   -1.0920549364
H       -1.8746155927   -1.0388981295    0.3042419921
H       -0.5589170580   -2.1994696744    0.5498460617
H        1.6805912429    0.1325288293   -1.2075750585
H        2.2038652947   -2.2405114040   -0.4205999271
15   
torsion grid (135,)
C       -0.0681590397    0.8097942511    1.1444015851
C       -0.4242883287    1.1581516072   -0.2963962512
C        0.0874356471   -0.2226496032    0.0602351433
C       -0.8789334540   -1.3833908231   -0.0195770655
N        1.4951926298   -0.5444221723   -0.2749897884
O        1.5316750628   -1.6701577184   -1.1982471041
H        0.8425615579    1.2411318083    1.5516266324
H       -0.8724738830    0.6881341277    1.8651085564
H       -1.4719506331    1.2735988928   -0.5618858064
H        0.2459844877    1.8345611670   -0.8234319559
H       -0.9821099626   -1.7415215640   -1.0456962005
H       -1.8605752017   -1.0643080954    0.3430303497
H       -0.5456838703   -2.2203123179    0.6041103301
H        1.8293211664    0.1977102735   -0.8903780168
H        2.0489442392   -2.3248536978   -0.7035453835
15   
torsion grid (150,)
C       -0.0761065043    0.8400417579    1.1229876168
C       -0.4069891672    1.1196008359   -0.3382586766
C        0.0895396805   -0.2468293076    0.0972197207
C       -0.8797326644   -1.4056517753    0.0321677382
N        1.4882628655   -0.6127224307   -0.1757676182
O        1.5149715446   -1.5085966867   -1.3325166992
H        0.8260861463    1.2895301672    1.5306830968
H       -0.8919797082    0.7516814536    1.8350075210
H       -1.4503171017    1.2291047394   -0.6220492424
H        0.2752276433    1.7611501343   -0.8919316532
H       -0.9587885783   -1.7850205652   -0.9882889654
H       -1.8704343810   -1.0821636815    0.3645197387
H       -0.5562246849   -2.2251314428    0.6849299106
H        1.9309556538    0.2062450438   -0.5959191973
H        1.9424696739   -2.2997721066   -0.9684182659
15   
torsion grid (165,)
C       -0.1005528291    0.5597543039    1.4017623674
C       -0.4576751782    1.3961373673    0.1794351004
C        0.1217871974    0.0035499970    0.0209677615
C       -0.7688417864   -1.0900306288   -0.5248071272
N        1.5249700667   -0.1476802300   -0.3550227678
O        1.5991955777   -0.1662463261   -1.8163061748
H        0.7714897477    0.8539390644    1.9810068758
H       -0.9045309892    0.1342498615    1.9954027220
H       -1.5080100182    1.5512244181   -0.0519014017
H        0.1810757431    2.2442687313   -0.0548985427
H       -0.8101651415   -1.0376077498   -1.6154573770
H       -1.7855283448   -0.9849308378   -0.1353327513
H       -0.3921588119   -2.0775412831   -0.2339506745
H        1.9873794789    0.7433134945   -0.1650646511
H        2.0349562258   -1.0159363725   -1.9891622333
15   
torsion grid (180,)
C       -0.0988668806    0.5757422546    1.3807730891
C       -0.4385850472    1.3842430252    0.1368049824
C        0.1152906735   -0.0215894032    0.0136982859
C       -0.7899467631   -1.1263891510   -0.4849368489
N        1.5053085571   -0.2090732589   -0.3675883917
O        1.6118673489    0.0136313998   -1.8067343526
H        0.7731071328    0.8713981713    1.9595869059
H       -0.9112979607    0.1764616612    1.9810298951
H       -1.4857008959    1.5497647841   -0.1008558505
H        0.2173081264    2.2099983859   -0.1252911403
H       -0.8126135203   -1.1313778408   -1.5787339045
H       -1.8129848947   -0.9832229307   -0.1250698994
H       -0.4340143969   -2.1021104351   -0.1362937781
H        2.0434732097    0.5744115449    0.0059746412
H        2.0110462492   -0.8154243976   -2.1156925079
