
  -OEChem-12102412493D

 33 35  0     0  0  0  0  0  0999 V2000
    1.1394   -1.7131   -0.2181 C   0  0  0  0  0  0  0  0  0  0  0  0
    1.0114   -0.3212   -0.2893 C   0  0  0  0  0  0  0  0  0  0  0  0
    2.4052   -2.2894   -0.3175 C   0  0  0  0  0  0  0  0  0  0  0  0
    2.1405    0.4730   -0.4754 C   0  0  0  0  0  0  0  0  0  0  0  0
    3.5527   -1.5129   -0.5248 C   0  0  0  0  0  0  0  0  0  0  0  0
    3.4052   -0.1170   -0.6315 C   0  0  0  0  0  0  0  0  0  0  0  0
    1.9275    1.9285   -4.2090 C   0  0  0  0  0  0  0  0  0  0  0  0
    2.9569    1.1906   -3.6431 C   0  0  0  0  0  0  0  0  0  0  0  0
    3.4690    2.0060   -2.6025 C   0  0  0  0  0  0  0  0  0  0  0  0
    4.6460    1.7550   -1.7069 C   0  0  0  0  0  0  0  0  0  0  0  0
    4.9124   -2.1856   -0.5847 C   0  0  0  0  0  0  0  0  0  0  0  0
    6.0664   -1.2269   -0.9109 C   0  0  0  0  0  0  0  0  0  0  0  0
    5.8141    0.1451   -0.2849 C   0  0  0  0  0  0  0  0  0  0  0  0
    0.9552    4.2097   -3.7067 C   0  0  0  0  0  0  0  0  0  0  0  0
    2.8007    3.1626   -2.5378 N   0  0  0  0  0  0  0  0  0  0  0  0
    4.5650    0.6815   -0.8420 N   0  0  0  0  0  0  0  0  0  0  0  0
    1.8668    3.0941   -3.5127 N   0  0  0  0  0  0  0  0  0  0  0  0
    5.6500    2.4576   -1.7975 O   0  0  0  0  0  0  0  0  0  0  0  0
    3.6011   -0.7009   -4.2714 I   0  0  0  0  0  0  0  0  0  0  0  0
    0.2641   -2.3395   -0.0682 H   0  0  0  0  0  0  0  0  0  0  0  0
    0.0371    0.1479   -0.1804 H   0  0  0  0  0  0  0  0  0  0  0  0
    2.5134   -3.3699   -0.2425 H   0  0  0  0  0  0  0  0  0  0  0  0
    2.0481    1.5529   -0.4947 H   0  0  0  0  0  0  0  0  0  0  0  0
    1.2666    1.7083   -5.0355 H   0  0  0  0  0  0  0  0  0  0  0  0
    5.0951   -2.6560    0.3901 H   0  0  0  0  0  0  0  0  0  0  0  0
    4.8825   -3.0019   -1.3149 H   0  0  0  0  0  0  0  0  0  0  0  0
    7.0154   -1.6382   -0.5508 H   0  0  0  0  0  0  0  0  0  0  0  0
    6.1573   -1.0921   -1.9932 H   0  0  0  0  0  0  0  0  0  0  0  0
    5.7123    0.0725    0.8041 H   0  0  0  0  0  0  0  0  0  0  0  0
    6.6084    0.8535   -0.5140 H   0  0  0  0  0  0  0  0  0  0  0  0
    0.3428    4.3522   -2.8128 H   0  0  0  0  0  0  0  0  0  0  0  0
    1.5252    5.1207   -3.9025 H   0  0  0  0  0  0  0  0  0  0  0  0
    0.3093    3.9934   -4.5590 H   0  0  0  0  0  0  0  0  0  0  0  0
  1  2  1  0  0  0  0
  1  3  2  0  0  0  0
  1 20  1  0  0  0  0
  2  4  2  0  0  0  0
  2 21  1  0  0  0  0
  3  5  1  0  0  0  0
  3 22  1  0  0  0  0
  4  6  1  0  0  0  0
  4 23  1  0  0  0  0
  5  6  2  0  0  0  0
  5 11  1  0  0  0  0
  6 16  1  0  0  0  0
  7  8  2  0  0  0  0
  7 17  1  0  0  0  0
  7 24  1  0  0  0  0
  8  9  1  0  0  0  0
  8 19  1  0  0  0  0
  9 10  1  0  0  0  0
  9 15  2  0  0  0  0
 10 16  1  0  0  0  0
 10 18  2  0  0  0  0
 11 12  1  0  0  0  0
 11 25  1  0  0  0  0
 11 26  1  0  0  0  0
 12 13  1  0  0  0  0
 12 27  1  0  0  0  0
 12 28  1  0  0  0  0
 13 16  1  0  0  0  0
 13 29  1  0  0  0  0
 13 30  1  0  0  0  0
 14 17  1  0  0  0  0
 14 31  1  0  0  0  0
 14 32  1  0  0  0  0
 14 33  1  0  0  0  0
 15 17  1  0  0  0  0
M  END
$$$$
