
  -OEChem-12102412493D

 17 17  0     0  0  0  0  0  0999 V2000
    0.2125   -2.7134   -1.8054 C   0  0  0  0  0  0  0  0  0  0  0  0
    0.1289   -1.3299   -1.7832 C   0  0  0  0  0  0  0  0  0  0  0  0
    0.3660   -0.9575   -0.4239 C   0  0  0  0  0  0  0  0  0  0  0  0
    0.4050    0.3670    0.2758 C   0  0  0  0  0  0  0  0  0  0  0  0
    0.4214    1.6321   -0.5564 C   0  0  0  0  0  0  0  0  0  0  0  0
    0.7523   -4.4462   -0.0457 C   0  0  0  0  0  0  0  0  0  0  0  0
    0.5841   -2.0633    0.3127 N   0  0  0  0  0  0  0  0  0  0  0  0
    0.4846   -3.0994   -0.5300 N   0  0  0  0  0  0  0  0  0  0  0  0
    0.4324    0.4132    1.4967 O   0  0  0  0  0  0  0  0  0  0  0  0
   -0.3317   -0.2129   -3.5059 I   0  0  0  0  0  0  0  0  0  0  0  0
    0.0923   -3.4185   -2.6161 H   0  0  0  0  0  0  0  0  0  0  0  0
   -0.5371    1.7663   -1.0684 H   0  0  0  0  0  0  0  0  0  0  0  0
    1.1942    1.5950   -1.3300 H   0  0  0  0  0  0  0  0  0  0  0  0
    0.5961    2.4798    0.1079 H   0  0  0  0  0  0  0  0  0  0  0  0
    1.8265   -4.6523   -0.0637 H   0  0  0  0  0  0  0  0  0  0  0  0
    0.3864   -4.5208    0.9785 H   0  0  0  0  0  0  0  0  0  0  0  0
    0.2303   -5.1668   -0.6779 H   0  0  0  0  0  0  0  0  0  0  0  0
  1  2  2  0  0  0  0
  1  8  1  0  0  0  0
  1 11  1  0  0  0  0
  2  3  1  0  0  0  0
  2 10  1  0  0  0  0
  3  4  1  0  0  0  0
  3  7  2  0  0  0  0
  4  5  1  0  0  0  0
  4  9  2  0  0  0  0
  5 12  1  0  0  0  0
  5 13  1  0  0  0  0
  5 14  1  0  0  0  0
  6  8  1  0  0  0  0
  6 15  1  0  0  0  0
  6 16  1  0  0  0  0
  6 17  1  0  0  0  0
  7  8  1  0  0  0  0
M  END
$$$$
