
  -OEChem-12102412493D

 21 21  0     0  0  0  0  0  0999 V2000
    0.4134   -2.6867   -1.8507 C   0  0  0  0  0  0  0  0  0  0  0  0
   -0.0053   -1.3659   -1.8578 C   0  0  0  0  0  0  0  0  0  0  0  0
   -0.0808   -1.0010   -0.4848 C   0  0  0  0  0  0  0  0  0  0  0  0
   -0.4717    0.3089    0.0823 C   0  0  0  0  0  0  0  0  0  0  0  0
   -0.3172   -5.1106    0.4885 C   0  0  0  0  0  0  0  0  0  0  0  0
   -0.8087    1.5683    2.0395 C   0  0  0  0  0  0  0  0  0  0  0  0
    0.9149   -4.3510   -0.0043 C   0  0  0  0  0  0  0  0  0  0  0  0
    0.2688   -2.0363    0.2984 N   0  0  0  0  0  0  0  0  0  0  0  0
    0.5691   -3.0368   -0.5431 N   0  0  0  0  0  0  0  0  0  0  0  0
   -0.7887    1.2714   -0.5951 O   0  0  0  0  0  0  0  0  0  0  0  0
   -0.4384    0.3154    1.4315 O   0  0  0  0  0  0  0  0  0  0  0  0
   -0.3967   -0.2535   -3.5888 I   0  0  0  0  0  0  0  0  0  0  0  0
    0.6096   -3.3728   -2.6627 H   0  0  0  0  0  0  0  0  0  0  0  0
   -0.0185   -6.0824    0.8943 H   0  0  0  0  0  0  0  0  0  0  0  0
   -1.0256   -5.2793   -0.3283 H   0  0  0  0  0  0  0  0  0  0  0  0
   -0.8217   -4.5442    1.2751 H   0  0  0  0  0  0  0  0  0  0  0  0
   -0.7282    1.4021    3.1136 H   0  0  0  0  0  0  0  0  0  0  0  0
   -1.8315    1.8391    1.7663 H   0  0  0  0  0  0  0  0  0  0  0  0
   -0.1308    2.3638    1.7203 H   0  0  0  0  0  0  0  0  0  0  0  0
    1.4288   -4.9003   -0.7975 H   0  0  0  0  0  0  0  0  0  0  0  0
    1.6249   -4.1876    0.8097 H   0  0  0  0  0  0  0  0  0  0  0  0
  1  2  2  0  0  0  0
  1  9  1  0  0  0  0
  1 13  1  0  0  0  0
  2  3  1  0  0  0  0
  2 12  1  0  0  0  0
  3  4  1  0  0  0  0
  3  8  2  0  0  0  0
  4 10  2  0  0  0  0
  4 11  1  0  0  0  0
  5  7  1  0  0  0  0
  5 14  1  0  0  0  0
  5 15  1  0  0  0  0
  5 16  1  0  0  0  0
  6 11  1  0  0  0  0
  6 17  1  0  0  0  0
  6 18  1  0  0  0  0
  6 19  1  0  0  0  0
  7  9  1  0  0  0  0
  7 20  1  0  0  0  0
  7 21  1  0  0  0  0
  8  9  1  0  0  0  0
M  END
$$$$
