24
0 1 C10H9IN2O2
C                     2.030767584943    -0.199770318521     0.609416171204
C                     2.912870122207    -0.261820045421     1.669350710403
C                     0.635104248087    -0.030778481186     0.823482651288
C                     2.383510948661    -0.151881569574     2.975065314630
C                     0.079895979616     0.080754003421     2.090137987082
C                     0.973481641185     0.019479087210     3.206845419747
C                     2.938867074537    -0.167871548012     4.264003413747
C                    -1.383558646291     0.257156030947     2.283541832790
C                     1.966113221354     0.031107862249     6.587561341453
C                    -3.479791553608     0.457107682623     1.213357363858
N                     0.701576324812     0.100132398791     4.528349904633
N                     1.909004570240    -0.016615883951     5.133399675919
O                    -1.943715547199     0.364130093102     3.357959460111
O                    -2.055228383456     0.287804228704     1.096948802302
I                     4.935664567658    -0.376803188784     4.838657447139
H                     2.399179541904    -0.280405209444    -0.409252266549
H                     3.980536295003    -0.390852362176     1.511974651516
H                    -0.025921507535     0.013335921889    -0.034574047064
H                     2.585975927499     0.869603784306     6.914698666630
H                     0.944167038791     0.161835228862     6.938211168999
H                     2.382330232594    -0.899739473935     6.980762086254
H                    -3.856882180869     0.461652605765     0.190308709371
H                    -3.714450478002     1.399716998334     1.714026454080
H                    -3.918810546267    -0.366806771977     1.781428538585
