21
0 1 C7H9IN2O2
C                    -0.592422338305    -2.974308633553    -1.575844753312
C                    -0.716849702055    -1.617067737400    -1.327393190054
C                     0.411540852149    -1.288215063127    -0.525648672905
C                     0.767877249751     0.036318696702     0.033162260476
C                     1.618213855862     1.496234539973     2.669232637496
C                     1.145396981521    -4.705544856584    -0.957496589386
C                     2.329614493176     1.252902972607     1.345558875302
N                     1.167655508528    -2.377811032756    -0.305339716812
N                     0.542808678031    -3.381069687255    -0.940577015926
O                     0.094912023274     1.038279020207    -0.141915215325
O                     1.913061904208    -0.000375281894     0.743329930764
I                    -2.287664038593    -0.422609927037    -2.028461245447
H                    -1.218034163253    -3.652563721808    -2.138805182164
H                     2.011588911636     2.406698065254     3.134849939467
H                     0.544422038802     1.626215782594     2.515086850931
H                     1.781796004532     0.659982757924     3.355667477193
H                     1.936738536180    -4.756060774586    -1.710985923538
H                     1.569394173074    -4.908393705862     0.026621815364
H                     0.376237297258    -5.445508209560    -1.185352940738
H                     3.405591891492     1.132567773270     1.487133903766
H                     2.144894016861     2.065769429448     0.639951712424
