19
0 1 BrC8H8IO
C                     1.986469139326    -1.113811621507    -0.103749049854
C                     0.827708776911    -0.866997353705     0.634525783311
C                     3.196606428107    -1.379227722413     0.531041041599
C                     0.870229652777    -0.881773727712     2.035469451462
C                     3.239382801313    -1.396857885616     1.930014286656
C                     2.093518990241    -1.153207975823     2.695312834692
C                    -2.118999936581    -1.839993495966     1.883142404637
C                    -1.512151915298    -0.494386444371     2.265679778842
O                    -0.199444948621    -0.628018258314     2.835158517323
Br                    4.935304616028    -1.771783595990     2.734640491224
I                     2.098241219499    -1.172137353747     4.815470092416
H                     1.942149198530    -1.099181342744    -1.189150602157
H                    -0.100309038144    -0.663288131076     0.114308632923
H                     4.097621589543    -1.572563182551    -0.040023894987
H                    -3.141978803178    -1.693454557720     1.519784883804
H                    -1.545953707600    -2.340206948734     1.098084570058
H                    -2.152342620026    -2.498919190661     2.755299347274
H                    -2.093556778785    -0.026540517869     3.062961855702
H                    -1.489784811711     0.203873622114     1.421363791194
