
  -OEChem-12102412493D

 24 25  0     0  0  0  0  0  0999 V2000
    2.0308   -0.1998    0.6094 C   0  0  0  0  0  0  0  0  0  0  0  0
    2.9129   -0.2618    1.6694 C   0  0  0  0  0  0  0  0  0  0  0  0
    0.6351   -0.0308    0.8235 C   0  0  0  0  0  0  0  0  0  0  0  0
    2.3835   -0.1519    2.9751 C   0  0  0  0  0  0  0  0  0  0  0  0
    0.0799    0.0808    2.0901 C   0  0  0  0  0  0  0  0  0  0  0  0
    0.9735    0.0195    3.2068 C   0  0  0  0  0  0  0  0  0  0  0  0
    2.9389   -0.1679    4.2640 C   0  0  0  0  0  0  0  0  0  0  0  0
   -1.3836    0.2572    2.2835 C   0  0  0  0  0  0  0  0  0  0  0  0
    1.9661    0.0311    6.5876 C   0  0  0  0  0  0  0  0  0  0  0  0
   -3.4798    0.4571    1.2134 C   0  0  0  0  0  0  0  0  0  0  0  0
    0.7016    0.1001    4.5283 N   0  0  0  0  0  0  0  0  0  0  0  0
    1.9090   -0.0166    5.1334 N   0  0  0  0  0  0  0  0  0  0  0  0
   -1.9437    0.3641    3.3580 O   0  0  0  0  0  0  0  0  0  0  0  0
   -2.0552    0.2878    1.0969 O   0  0  0  0  0  0  0  0  0  0  0  0
    4.9357   -0.3768    4.8387 I   0  0  0  0  0  0  0  0  0  0  0  0
    2.3992   -0.2804   -0.4093 H   0  0  0  0  0  0  0  0  0  0  0  0
    3.9805   -0.3909    1.5120 H   0  0  0  0  0  0  0  0  0  0  0  0
   -0.0259    0.0133   -0.0346 H   0  0  0  0  0  0  0  0  0  0  0  0
    2.5860    0.8696    6.9147 H   0  0  0  0  0  0  0  0  0  0  0  0
    0.9442    0.1618    6.9382 H   0  0  0  0  0  0  0  0  0  0  0  0
    2.3823   -0.8997    6.9808 H   0  0  0  0  0  0  0  0  0  0  0  0
   -3.8569    0.4617    0.1903 H   0  0  0  0  0  0  0  0  0  0  0  0
   -3.7145    1.3997    1.7140 H   0  0  0  0  0  0  0  0  0  0  0  0
   -3.9188   -0.3668    1.7814 H   0  0  0  0  0  0  0  0  0  0  0  0
  1  2  2  0  0  0  0
  1  3  1  0  0  0  0
  1 16  1  0  0  0  0
  2  4  1  0  0  0  0
  2 17  1  0  0  0  0
  3  5  2  0  0  0  0
  3 18  1  0  0  0  0
  4  6  1  0  0  0  0
  4  7  2  0  0  0  0
  5  6  1  0  0  0  0
  5  8  1  0  0  0  0
  6 11  2  0  0  0  0
  7 12  1  0  0  0  0
  7 15  1  0  0  0  0
  8 13  2  0  0  0  0
  8 14  1  0  0  0  0
  9 12  1  0  0  0  0
  9 19  1  0  0  0  0
  9 20  1  0  0  0  0
  9 21  1  0  0  0  0
 10 14  1  0  0  0  0
 10 22  1  0  0  0  0
 10 23  1  0  0  0  0
 10 24  1  0  0  0  0
 11 12  1  0  0  0  0
M  END
$$$$
