
  -OEChem-12122420533D

 18 18  0     0  0  0  0  0  0999 V2000
    1.8624   -1.0599   -0.0881 C   0  0  0  0  0  0  0  0  0  0  0  0
    0.8458   -0.4798    0.6744 C   0  0  0  0  0  0  0  0  0  0  0  0
    2.9283   -1.7257    0.5259 C   0  0  0  0  0  0  0  0  0  0  0  0
    1.9530   -1.2443    2.7042 C   0  0  0  0  0  0  0  0  0  0  0  0
    0.9088   -0.5722    2.0651 C   0  0  0  0  0  0  0  0  0  0  0  0
    2.9605   -1.8137    1.9214 C   0  0  0  0  0  0  0  0  0  0  0  0
   -0.0382    1.2456    3.3432 C   0  0  0  0  0  0  0  0  0  0  0  0
    1.2155    2.0319    3.0299 C   0  0  0  0  0  0  0  0  0  0  0  0
   -0.9625    1.6557    4.0003 O   0  0  0  0  0  0  0  0  0  0  0  0
   -0.1226   -0.0389    2.8325 O   0  0  0  0  0  0  0  0  0  0  0  0
    4.5672   -2.8313    2.8743 I   0  0  0  0  0  0  0  0  0  0  0  0
    1.8267   -0.9964   -1.1722 H   0  0  0  0  0  0  0  0  0  0  0  0
    0.0083    0.0316    0.2092 H   0  0  0  0  0  0  0  0  0  0  0  0
    3.7140   -2.1724   -0.0740 H   0  0  0  0  0  0  0  0  0  0  0  0
    1.9590   -1.3180    3.7868 H   0  0  0  0  0  0  0  0  0  0  0  0
    2.0991    1.5386    3.4440 H   0  0  0  0  0  0  0  0  0  0  0  0
    1.1109    3.0240    3.4672 H   0  0  0  0  0  0  0  0  0  0  0  0
    1.3690    2.1147    1.9506 H   0  0  0  0  0  0  0  0  0  0  0  0
  1  2  1  0  0  0  0
  1  3  2  0  0  0  0
  1 12  1  0  0  0  0
  2  5  2  0  0  0  0
  2 13  1  0  0  0  0
  3  6  1  0  0  0  0
  3 14  1  0  0  0  0
  4  5  1  0  0  0  0
  4  6  2  0  0  0  0
  4 15  1  0  0  0  0
  5 10  1  0  0  0  0
  6 11  1  0  0  0  0
  7  8  1  0  0  0  0
  7  9  2  0  0  0  0
  7 10  1  0  0  0  0
  8 16  1  0  0  0  0
  8 17  1  0  0  0  0
  8 18  1  0  0  0  0
M  END
$$$$
