18
0 1 C8H7IO2
C                     1.862420052613    -1.059853596253    -0.088145159109
C                     0.845761763289    -0.479764140309     0.674379770080
C                     2.928290377877    -1.725741892471     0.525876145020
C                     1.952986276837    -1.244299625392     2.704212547605
C                     0.908766305797    -0.572225506878     2.065080694725
C                     2.960501971493    -1.813739749811     1.921442187354
C                    -0.038230359959     1.245561750082     3.343173010570
C                     1.215536314525     2.031921471726     3.029903700259
O                    -0.962452699096     1.655724831153     4.000252443019
O                    -0.122550816692    -0.038931932521     2.832478975599
I                     4.567163444337    -2.831311716508     2.874285986116
H                     1.826684747327    -0.996410963808    -1.172204172953
H                     0.008344521350     0.031642595821     0.209177761092
H                     3.714049695058    -2.172405178028    -0.073989933312
H                     1.959043837161    -1.317996886663     3.786770079324
H                     2.099121563999     1.538604489206     3.443998202874
H                     1.110902549168     3.024042798062     3.467172217039
H                     1.369015745270     2.114732953185     1.950625183375
