24
0 1 C8H11IN2O2
C                     3.390228305410    -1.005994521846    -2.132974210230
C                     4.764414286657    -1.134250117583    -2.268326982547
C                     5.310477018234    -0.199294455914    -1.341882474840
C                     6.713465405960     0.146552649227    -1.004040402701
C                     1.745048319741     1.937944176494    -1.016095784533
C                     1.759651197707     0.160198097450     0.812357605327
C                     8.978595872399    -0.302032772004    -1.499297777509
C                     1.890547631147     0.450267305160    -0.685054332773
N                     4.324023349161     0.445240989509    -0.696106516325
N                     3.181549352049    -0.052978904536    -1.184894773817
O                     7.047000859330     0.961020703230    -0.166008288595
O                     7.585673832248    -0.565907734244    -1.754338205594
I                     5.669926152608    -2.477506410547    -3.602537361519
H                     2.578491970004    -1.515025072380    -2.633477932573
H                     1.838907544953     2.110218473608    -2.092466985946
H                     2.517856829040     2.516471003886    -0.503933785521
H                     0.763783455473     2.296391678952    -0.690574730602
H                     1.863070469615    -0.910151845196     1.014003603054
H                     0.778803510294     0.488549656780     1.169324618119
H                     2.533168307043     0.693952982040     1.369946081141
H                     9.524505333089    -0.955156329631    -2.179830312185
H                     9.225820585920    -0.532189647194    -0.460270103843
H                     9.210325261172     0.746622434327    -1.700143696337
H                     1.133846291870    -0.119748071930    -1.233261713750
