
  -OEChem-12122420533D

 18 18  0     0  0  0  0  0  0999 V2000
    1.8574   -1.1824   -0.1985 C   0  0  0  0  0  0  0  0  0  0  0  0
    0.8216   -0.4726    0.4139 C   0  0  0  0  0  0  0  0  0  0  0  0
    2.8919   -1.7350    0.5618 C   0  0  0  0  0  0  0  0  0  0  0  0
    1.8474   -0.8689    2.5873 C   0  0  0  0  0  0  0  0  0  0  0  0
    0.8305   -0.3259    1.7995 C   0  0  0  0  0  0  0  0  0  0  0  0
    2.8731   -1.5706    1.9506 C   0  0  0  0  0  0  0  0  0  0  0  0
   -0.0501    1.4065    3.2031 C   0  0  0  0  0  0  0  0  0  0  0  0
   -1.3717    1.9419    3.6913 C   0  0  0  0  0  0  0  0  0  0  0  0
    1.0441    1.8413    3.4750 O   0  0  0  0  0  0  0  0  0  0  0  0
   -0.2646    0.3238    2.3771 O   0  0  0  0  0  0  0  0  0  0  0  0
    4.4385   -2.4068    3.1252 I   0  0  0  0  0  0  0  0  0  0  0  0
    1.8617   -1.3065   -1.2779 H   0  0  0  0  0  0  0  0  0  0  0  0
    0.0107   -0.0396   -0.1637 H   0  0  0  0  0  0  0  0  0  0  0  0
    3.6950   -2.2830    0.0806 H   0  0  0  0  0  0  0  0  0  0  0  0
    1.8360   -0.7377    3.6623 H   0  0  0  0  0  0  0  0  0  0  0  0
   -1.9823    2.2568    2.8401 H   0  0  0  0  0  0  0  0  0  0  0  0
   -1.1971    2.7859    4.3576 H   0  0  0  0  0  0  0  0  0  0  0  0
   -1.9218    1.1552    4.2154 H   0  0  0  0  0  0  0  0  0  0  0  0
  1  2  1  0  0  0  0
  1  3  2  0  0  0  0
  1 12  1  0  0  0  0
  2  5  2  0  0  0  0
  2 13  1  0  0  0  0
  3  6  1  0  0  0  0
  3 14  1  0  0  0  0
  4  5  1  0  0  0  0
  4  6  2  0  0  0  0
  4 15  1  0  0  0  0
  5 10  1  0  0  0  0
  6 11  1  0  0  0  0
  7  8  1  0  0  0  0
  7  9  2  0  0  0  0
  7 10  1  0  0  0  0
  8 16  1  0  0  0  0
  8 17  1  0  0  0  0
  8 18  1  0  0  0  0
M  END
$$$$
