21
0 1 C7H9IN2O2
C                     0.413353908525    -2.686730411144    -1.850747234154
C                    -0.005259995015    -1.365908570150    -1.857807056115
C                    -0.080791400374    -1.001009698980    -0.484789185935
C                    -0.471655277446     0.308867735984     0.082280991888
C                    -0.317188132145    -5.110634863907     0.488468740292
C                    -0.808692598050     1.568336564793     2.039531865532
C                     0.914883663145    -4.350977069763    -0.004323436021
N                     0.268838909065    -2.036301418581     0.298375294919
N                     0.569103403669    -3.036809933826    -0.543107350940
O                    -0.788729811120     1.271448400714    -0.595050766802
O                    -0.438426134263     0.315354898243     1.431528608065
I                    -0.396660119105    -0.253504231934    -3.588755348533
H                     0.609586354595    -3.372793847815    -2.662672919750
H                    -0.018525007158    -6.082353164914     0.894311523365
H                    -1.025556748087    -5.279342310825    -0.328339308877
H                    -0.821685729525    -4.544181447415     1.275145492004
H                    -0.728219878776     1.402098962546     3.113626758256
H                    -1.831498227904     1.839050459843     1.766280756261
H                    -0.130846283315     2.363760277124     1.720303083185
H                     1.428832497802    -4.900275524188    -0.797502680255
H                     1.624901359321    -4.187608745729     0.809696124421
