26
0 1 C11ClH10IN2O
C                    -0.323018908283     1.124875034198     1.554795316855
C                    -0.523740899100    -5.277851655664    -2.081147509694
C                    -1.115618486509    -6.036641324010    -1.069765625170
C                    -1.174419642139    -4.059817757000     0.357874255369
C                    -0.578256089747    -3.292534328747    -0.658906115138
C                    -0.260170377801    -3.927654711448    -1.876884471363
C                    -1.433173237918    -5.413347099449     0.139220279836
C                    -0.503920942390    -1.106441368319     0.566165184249
C                    -0.825446766590     1.000985626709    -0.840747031327
C                     1.488315911026     0.412448904368     0.065694646609
C                    -0.038168112844     0.355662342255     0.328000429083
N                    -0.508845502555     1.809732883473     2.474502864201
N                    -0.285183420359    -1.925872374294    -0.518908638024
O                    -1.010153891764    -1.470442739065     1.615765718040
Cl                    0.488570887369    -3.004124843024    -3.179837992949
I                    -2.334855908779    -6.550640509879     1.692059408463
H                    -0.266325640113    -5.735972924317    -3.030679548134
H                    -1.320491099945    -7.089288278085    -1.230555512078
H                    -1.421508097820    -3.581175292457     1.294539508685
H                    -0.590819471118     0.507928306155    -1.788619792289
H                    -1.902649241899     0.934124361313    -0.670321451842
H                    -0.553176672491     2.055433582503    -0.931962053270
H                     1.741521739931    -0.084248176418    -0.875478582696
H                     2.042134703019    -0.070183979685     0.874542674590
H                     1.812720533337     1.453696349430    -0.004062297651
H                     0.143119310442    -1.506504874779    -1.334465542931
