
  -OEChem-12122420533D

 18 18  0     0  0  0  0  0  0999 V2000
    1.8641   -1.1045   -0.0653 C   0  0  0  0  0  0  0  0  0  0  0  0
    0.7493   -0.6477    0.6401 C   0  0  0  0  0  0  0  0  0  0  0  0
    2.9958   -1.5834    0.6036 C   0  0  0  0  0  0  0  0  0  0  0  0
    1.8931   -1.1548    2.7300 C   0  0  0  0  0  0  0  0  0  0  0  0
    0.7812   -0.6814    2.0341 C   0  0  0  0  0  0  0  0  0  0  0  0
    2.9980   -1.6016    2.0007 C   0  0  0  0  0  0  0  0  0  0  0  0
   -1.5291   -0.7176    2.6522 C   0  0  0  0  0  0  0  0  0  0  0  0
   -2.4936   -0.0342    3.5873 C   0  0  0  0  0  0  0  0  0  0  0  0
   -1.7890   -1.6100    1.8799 O   0  0  0  0  0  0  0  0  0  0  0  0
   -0.2708   -0.1760    2.8045 O   0  0  0  0  0  0  0  0  0  0  0  0
    4.7084   -2.3214    3.0424 I   0  0  0  0  0  0  0  0  0  0  0  0
    1.8549   -1.0881   -1.1516 H   0  0  0  0  0  0  0  0  0  0  0  0
   -0.1296   -0.2821    0.1214 H   0  0  0  0  0  0  0  0  0  0  0  0
    3.8565   -1.9335    0.0438 H   0  0  0  0  0  0  0  0  0  0  0  0
    1.8800   -1.1623    3.8145 H   0  0  0  0  0  0  0  0  0  0  0  0
   -2.1835   -0.1997    4.6233 H   0  0  0  0  0  0  0  0  0  0  0  0
   -3.4950   -0.4337    3.4312 H   0  0  0  0  0  0  0  0  0  0  0  0
   -2.4849    1.0452    3.4116 H   0  0  0  0  0  0  0  0  0  0  0  0
  1  2  1  0  0  0  0
  1  3  2  0  0  0  0
  1 12  1  0  0  0  0
  2  5  2  0  0  0  0
  2 13  1  0  0  0  0
  3  6  1  0  0  0  0
  3 14  1  0  0  0  0
  4  5  1  0  0  0  0
  4  6  2  0  0  0  0
  4 15  1  0  0  0  0
  5 10  1  0  0  0  0
  6 11  1  0  0  0  0
  7  8  1  0  0  0  0
  7  9  2  0  0  0  0
  7 10  1  0  0  0  0
  8 16  1  0  0  0  0
  8 17  1  0  0  0  0
  8 18  1  0  0  0  0
M  END
$$$$
