33
0 1 C14H14IN3O
C                     2.158811822010     0.201946231710     0.200335860789
C                     0.812305730085     0.406230823429     0.525792667315
C                     3.144829300892     0.724084999179     1.033608052345
C                     0.468687048387     1.129708951599     1.663726990724
C                     2.824509238717     1.458538410867     2.184971464582
C                     1.466767894384     1.666739347871     2.495906251419
C                    -1.236471311119     5.038550825820     6.665584203080
C                    -0.820672461002     5.073848025294     5.343346537877
C                    -0.411470333994     3.747707196610     5.049071175691
C                     0.011893443022     3.207659521843     3.717679607302
C                     3.945948208867     1.968623288784     3.069924049759
C                     3.448848799940     2.924594339649     4.154507017835
C                     2.139361717837     2.398631938743     4.741212379561
C                    -1.472645232825     3.176769177886     8.360642670468
N                    -0.576635495123     2.955558667871     6.119165335241
N                     1.110641828848     2.369704344811     3.690372888458
N                    -1.073131626155     3.755092298510     7.087852932527
O                    -0.653655682355     3.504474072080     2.727872817417
I                    -0.763252029259     6.770967309826     4.118498170265
H                     2.433129625536    -0.359034365276    -0.689125192511
H                     0.026701800499     0.001115987111    -0.106497680954
H                     4.194821378193     0.566857448584     0.793495200071
H                    -0.573229255503     1.290304334132     1.907196816220
H                    -1.621813255748     5.816547568414     7.309563604966
H                     4.433808622914     1.106615822170     3.544192547149
H                     4.711305024607     2.451292617272     2.452562610827
H                     4.197261874695     3.030063353023     4.947316330156
H                     3.267342360790     3.921690836657     3.737632091152
H                     2.271714071244     1.384584361062     5.137150214107
H                     1.796431072348     3.028112858742     5.556549633591
H                    -2.444684056469     2.682799677531     8.270594193227
H                    -0.723221096215     2.444929377732     8.665665955183
H                    -1.534756534785     3.969073977946     9.108831908555
