33
0 1 C14H14IN3O
C                     1.840963594212    -0.959213065629     0.055517007775
C                     0.475004323593    -0.969678878497    -0.253008313511
C                     2.525487178119    -2.169110891139     0.166619673485
C                    -0.179335632521    -2.179700018172    -0.466393652565
C                     1.890034890180    -3.398319387919    -0.057844752489
C                     0.528441680806    -3.391345430252    -0.410741064297
C                    -1.932158073496    -2.407060070092    -4.247236306825
C                    -2.364074550177    -3.234684776620    -3.221188408201
C                    -1.185867068148    -3.834037955233    -2.712012931905
C                    -1.056693815627    -4.865191196832    -1.637476694804
C                     2.659108916528    -4.692380165857     0.142330465974
C                     1.869572522920    -5.944425643837    -0.262872510100
C                     0.392941659639    -5.781991862632     0.103725506760
C                     0.337176187288    -1.962587620522    -5.274728779857
N                    -0.109848018294    -3.415397497580    -3.390067446122
N                    -0.134321051384    -4.630011673189    -0.637937478749
N                    -0.580138817594    -2.549978637160    -4.312065960365
O                    -1.723177113409    -5.897617813428    -1.696984529556
I                    -4.330478236902    -3.437242081006    -2.532383955289
H                     2.358911161754    -0.019894740033     0.229986448377
H                    -0.084719662730    -0.039622514073    -0.306985203932
H                     3.580762999909    -2.168689237446     0.433720500002
H                    -1.244563404356    -2.189886356679    -0.672100233409
H                    -2.478796930886    -1.748298817216    -4.907227605669
H                     3.606854378620    -4.647447337308    -0.405465453262
H                     2.925729408890    -4.762316353022     1.205102278749
H                     1.933966557781    -6.105097688272    -1.344424578659
H                     2.286331956676    -6.831249949975     0.226161190366
H                    -0.199828147006    -6.652586859355    -0.172479131028
H                     0.269508244152    -5.603441280378     1.178501312967
H                     1.243206974995    -1.652163405024    -4.752085674756
H                     0.595620383735    -2.688235454632    -6.051540710551
H                    -0.136602508968    -1.092503311558    -5.732634197125
