18
0 1 C8H7IO2
C                     2.120204232785    -1.013702485346    -0.279738086318
C                     1.031662685791    -0.266927520980     0.177374406526
C                     2.914897886944    -1.742200938881     0.611471230901
C                     1.530109633902    -0.964209175845     2.456859677947
C                     0.744578365640    -0.258695772585     1.542677253982
C                     2.611678408586    -1.706891674167     1.976481215814
C                    -1.571140230323    -0.022937715374     2.188304391991
C                    -1.747865780921    -1.485315799039     1.843692820385
O                    -2.445658139420     0.698373749625     2.599483207552
O                    -0.308665706709     0.519159240476     2.014665616732
I                     3.814286526972    -2.799264765797     3.349564434088
H                     2.356375423937    -1.029346773480    -1.340144577504
H                     0.412998063310     0.310218079807    -0.503343382507
H                     3.757692627697    -2.320221491851     0.247660400994
H                     1.293056119128    -0.917249312823     3.514687917219
H                    -1.464678808592    -1.682407422520     0.806299478783
H                    -2.794179679725    -1.745446017581     1.998663319048
H                    -1.114781386371    -2.114265340451     2.475507607679
