19
0 1 BrC8H8IO
C                     1.976311524558    -0.891085627338    -0.068246815378
C                     1.106143944268    -0.103320109390     0.688810284445
C                     2.839206040346    -1.794412123703     0.544958926125
C                     1.094383081304    -0.216830393823     2.085413768117
C                     2.826793231059    -1.907222936407     1.940838082614
C                     1.966422139134    -1.131481203120     2.724529692763
C                    -1.392939428914     2.107029932200     3.442797420406
C                    -0.625579232924     1.454286535481     2.306661574541
O                     0.281263206789     0.510199778164     2.894545858424
Br                    4.040454871814    -3.169694464879     2.713368472248
I                     1.901746804252    -1.257364158748     4.839794442586
H                     1.979271911211    -0.797068654398    -1.150549876360
H                     0.443246504727     0.593118687888     0.189886351872
H                     3.515667836994    -2.407111574910    -0.040163820025
H                    -2.100527730725     2.838755763458     3.040062590344
H                    -1.950522983380     1.357664306715     4.011256175105
H                    -0.709078401335     2.620371043873     4.124273927849
H                    -0.058570884166     2.199552667450     1.734135352130
H                    -1.304776669372     0.931874887200     1.620741301472
