9
0 1 C3F3H2I
C                     0.307484128082    -0.072240880920    -1.380109204644
C                    -0.327744487234    -0.237357749336    -0.219904336613
C                    -1.636193635864    -1.012487536805    -0.184676422312
F                    -2.170681981235    -1.105302335540     1.045758093396
F                    -1.459972073642    -2.276544379656    -0.646475583706
F                    -2.563331873727    -0.429517832804    -0.986418711626
I                     0.418720649167     0.544957396803     1.599937392657
H                     1.242412187867     0.472315939318    -1.456164966409
H                    -0.108773037125    -0.490006952608    -2.294777704335
