21   
torsion grid (-165,)
C        1.0514666353   -5.4026991575   -1.7571321487
C        0.7537532105   -4.2605925809   -0.9599452276
C        1.8198390512   -4.9522761591   -2.8021349623
C        1.3646994645   -3.1784432514   -1.5703827500
C       -0.7674294610   -0.7486365889    1.2465802126
C        0.4721979640   -1.1364536874   -0.4696839851
C        0.3176530121    0.3426975957   -0.3983703758
C        1.1917729559   -1.7681518762   -1.4365230041
C       -0.9465584041    1.7932595022    1.2471460528
N       -0.2342700351   -1.7367752669    0.5877059596
N       -0.4950014295    0.5100249171    0.7409138713
O        0.7524793014    1.2452466682   -1.1040377538
O        2.0539517931   -3.6202172693   -2.6875491961
H        0.7303006546   -6.4231679627   -1.5945575445
H        0.1346498133   -4.1950535948   -0.0768007573
H        2.2992726137   -5.4468886813   -3.6354619523
H       -1.3858845166   -0.8691630807    2.1315382093
H        1.6774321527   -1.1351568246   -2.1758898665
H       -0.5937168938    1.9583859100    2.2699727660
H       -2.0386726776    1.8637797982    1.2237618007
H       -0.5266693456    2.5632077786    0.5970978148
21   
torsion grid (-150,)
C        0.9405557749   -5.3382773458   -1.8018982718
C        0.8125779612   -4.2358310885   -0.9116734024
C        1.7345353042   -4.9052177696   -2.8367630147
C        1.5410136019   -3.1872375409   -1.4581426887
C       -0.7079696586   -0.7461786579    1.2737297238
C        0.5496644480   -1.1464203465   -0.4265396597
C        0.3175568680    0.3236373410   -0.4231099080
C        1.2979226873   -1.7805724252   -1.3699804414
C       -1.0168132458    1.7804166252    1.1604920430
N       -0.1247851304   -1.7342582398    0.6584479147
N       -0.5005271569    0.5004573771    0.7112898140
O        0.7030810464    1.2151390439   -1.1706348333
O        2.1697087774   -3.6418218337   -2.6095418068
H        0.4847563705   -6.3156546340   -1.7125569040
H        0.1951354919   -4.1522665842   -0.0287390190
H        2.1454515047   -5.3981816912   -3.7073231612
H       -1.3199818204   -0.8586415054    2.1641934744
H        1.7516375450   -1.1506358888   -2.1321610488
H       -0.6709248487    2.0099854831    2.1732247361
H       -2.1111815541    1.7935808017    1.1387696121
H       -0.6384586195    2.5404368443    0.4742631400
21   
torsion grid (-135,)
C        0.8346680903   -5.2563450866   -1.8465542132
C        0.8627789745   -4.2241709289   -0.8710955020
C        1.6613322918   -4.8407795701   -2.8654274310
C        1.7039382414   -3.2192560074   -1.3517424512
C       -0.6504289304   -0.7673825134    1.3056729805
C        0.6153421299   -1.1832834022   -0.3850460355
C        0.3077041371    0.2702908178   -0.4495984859
C        1.3873798987   -1.8201399932   -1.3075216074
C       -1.0843886835    1.7329222876    1.0782529160
N       -0.0223041415   -1.7528897474    0.7315611829
N       -0.5089997026    0.4600581144    0.6843748828
O        0.6403707272    1.1444173369   -1.2422158260
O        2.2815447488   -3.6863148438   -2.5320720593
H        0.2507427716   -6.1672274990   -1.8276663582
H        0.2461411618   -4.1231298466    0.0109584868
H        2.0080781708   -5.3216755731   -3.7706879718
H       -1.2508420287   -0.8687228483    2.2052852875
H        1.8053422468   -1.1965535332   -2.0952614109
H       -0.7424830484    2.0267651646    2.0756395321
H       -2.1782534810    1.6918413043    1.0669228310
H       -0.7490630020    2.4771632875    0.3534130497
21   
torsion grid (-120,)
C        0.7380134678   -5.1375891389   -1.8777901544
C        0.9209623790   -4.2189406387   -0.8132498903
C        1.5851586441   -4.7223718777   -2.8831517104
C        1.8511697872   -3.2522649733   -1.2300720818
C       -0.5916922532   -0.7817410470    1.3491872336
C        0.6816473738   -1.2175277604   -0.3311062703
C        0.3139495492    0.2164975471   -0.4573632208
C        1.4738112316   -1.8619677781   -1.2312307540
C       -1.1268350114    1.6867308719    1.0168847967
N        0.0733454547   -1.7645522063    0.8128725201
N       -0.5025922738    0.4220652914    0.6747873815
O        0.6043503667    1.0691682155   -1.2895499193
O        2.3781451675   -3.7226009853   -2.4459589815
H        0.0377113803   -5.9610610052   -1.9263090148
H        0.3206857839   -4.1138959858    0.0803526589
H        1.8556054105   -5.1621437140   -3.8351388361
H       -1.1837622076   -0.8688801543    2.2557451358
H        1.8647735151   -1.2538700114   -2.0445159710
H       -0.7924774359    2.0370096917    1.9984950760
H       -2.2182864823    1.6019876102    1.0141994551
H       -0.8247084102    2.4114702390    0.2584303581
21   
torsion grid (-105,)
C        0.6523114209   -4.9987282822   -1.9159635818
C        0.9298829744   -4.1909929641   -0.7859143245
C        1.5692550258   -4.6213206283   -2.8776339664
C        1.9771082481   -3.2970053836   -1.1198607651
C       -0.5226346697   -0.7893012720    1.4092842431
C        0.7259451789   -1.2625113980   -0.2800808616
C        0.2932664612    0.1435886149   -0.4748343384
C        1.5201253208   -1.9209860933   -1.1676558590
C       -1.1707970904    1.6323638185    0.9565962205
N        0.1707547660   -1.7712241756    0.9085057161
N       -0.5018320425    0.3775233167    0.6677105215
O        0.5232971160    0.9613656647   -1.3600796469
O        2.4863519257   -3.7947510774   -2.3422074085
H       -0.1516068812   -5.7129756562   -2.0358466275
H        0.3144107198   -4.0665156224    0.0955458954
H        1.8058698050   -5.0328229513   -3.8518308853
H       -1.0876496489   -0.8508043637    2.3349587319
H        1.8620371778   -1.3355317039   -2.0195377661
H       -0.8253177008    2.0523899936    1.9065089856
H       -2.2572843136    1.5022807185    0.9912385581
H       -0.9211405039    2.3241382702    0.1497686670
21   
torsion grid (105,)
C        1.5252823827   -5.0032163358   -1.3002185524
C        0.3759872203   -4.1843691434   -1.1781940431
C        2.1288592076   -4.6236246563   -2.4833489274
C        0.3501031148   -3.2818814617   -2.2702892968
C       -1.1606285703   -0.7821129103    0.9556435562
C        0.0027504544   -1.2547372525   -0.7937031006
C        0.3455224051    0.1458932228   -0.4426406763
C        0.5630046255   -1.9111665078   -1.8460596652
C       -0.4941548144    1.6308285352    1.4280301291
N       -0.9331113525   -1.7606266836    0.1270690004
N       -0.4583544558    0.3797443731    0.6937734284
O        1.1085675613    0.9599836889   -0.9528589770
O        1.3265265913   -3.7836394232   -3.1627087049
H        1.8995675641   -5.7264529932   -0.5877256355
H       -0.2475298394   -4.0596524751   -0.3024414493
H        2.9635469143   -5.0398720692   -3.0350947402
H       -1.8413972710   -0.8430072938    1.7998803065
H        1.2544050508   -1.3275437201   -2.4516374263
H       -0.1817560350    1.4874331664    2.4673819071
H       -1.4963556126    2.0706691405    1.4078844646
H        0.2032661738    2.3126797039    0.9375906545
21   
torsion grid (120,)
C        1.4580220975   -5.1416525836   -1.3710642090
C        0.4053625387   -4.2116172980   -1.1772535281
C        2.1248551069   -4.7249425034   -2.5035277388
C        0.4947119390   -3.2386314333   -2.1863943962
C       -1.0832133004   -0.7758373477    1.0018038274
C        0.0643495422   -1.2096339914   -0.7678279063
C        0.3212671364    0.2196055311   -0.4535996152
C        0.6377480106   -1.8520843492   -1.8221572058
C       -0.5670790095    1.6851126511    1.4101430360
N       -0.8124599861   -1.7550229475    0.1870573234
N       -0.4660271391    0.4239306588    0.6993061622
O        1.0148099277    1.0697010758   -1.0015377945
O        1.4563691036   -3.7137530337   -3.0954996040
H        1.7296297957   -5.9735721900   -0.7346407126
H       -0.2324598199   -4.1057244923   -0.3101849547
H        2.9250864021   -5.1693091327   -3.0822956188
H       -1.7373096178   -0.8630766693    1.8646792894
H        1.2774556788   -1.2458585221   -2.4604167045
H       -0.2219438496    1.5836221185    2.4439892292
H       -1.5962729603    2.0579208421    1.4060746982
H        0.0723532812    2.4009312131    0.8900390708
21   
torsion grid (135,)
C        1.3968603356   -5.2589548633   -1.4532526959
C        0.4787484357   -4.2205248049   -1.1427114024
C        2.0814541043   -4.8412786581   -2.5717069043
C        0.6583209932   -3.2092806932   -2.0879958725
C       -1.0255610479   -0.7610327623    1.0424142513
C        0.1355250784   -1.1773656656   -0.7216014792
C        0.3162588061    0.2723070907   -0.4434114109
C        0.7373910821   -1.8134062463   -1.7636231760
C       -0.6388895356    1.7330602319    1.3910895068
N       -0.7075972857   -1.7445713773    0.2506364980
N       -0.4739579349    0.4626031436    0.7090862021
O        0.9603456350    1.1433640605   -1.0173736189
O        1.5699717634   -3.6777908913   -3.0336364033
H        1.5671238392   -6.1758863046   -0.9043648331
H       -0.1430155356   -4.1206512343   -0.2641473481
H        2.8121097749   -5.3242606316   -3.2072243876
H       -1.6715965937   -0.8612764314    1.9099671282
H        1.3452315504   -1.1912211355   -2.4174571390
H       -0.2817010664    1.6747423716    2.4241447042
H       -1.6869065331    2.0490231188    1.3866273155
H       -0.0430007015    2.4701951229    0.8495345499
21   
torsion grid (150,)
C        1.3171884164   -5.3484441290   -1.5375353075
C        0.5382584590   -4.2382867836   -1.1078424432
C        2.0290443310   -4.9164523535   -2.6308736141
C        0.8191644795   -3.1869180975   -1.9709005092
C       -0.9591309477   -0.7429798673    1.0849411772
C        0.2118180809   -1.1468138583   -0.6747552167
C        0.3085308665    0.3202072725   -0.4432145865
C        0.8389603261   -1.7823704354   -1.7018170285
C       -0.7131909225    1.7786801504    1.3569929712
N       -0.5912491646   -1.7308634513    0.3209783344
N       -0.4808767117    0.4999289191    0.7108587650
O        0.8955964078    1.2079325300   -1.0510884154
O        1.6866484668   -3.6453988442   -2.9534470493
H        1.3735253274   -6.3301717998   -1.0858436030
H       -0.0831290136   -4.1528409628   -0.2278277074
H        2.7034908901   -5.4131607884   -3.3150761491
H       -1.5930792520   -0.8530727849    1.9602123128
H        1.4131721997   -1.1557254850   -2.3808952976
H       -0.3436939891    1.7718067254    2.3873130612
H       -1.7777938051    2.0331334287    1.3546892042
H       -0.1661686989    2.5326425777    0.7877786242
21   
torsion grid (165,)
C        1.2333576294   -5.4003791027   -1.6232302677
C        0.5990728550   -4.2524840392   -1.0679280293
C        1.9608361283   -4.9550477706   -2.6991774916
C        0.9795329873   -3.1715226160   -1.8448755072
C       -0.9160769791   -0.7307388161    1.1268639406
C        0.2734737833   -1.1258923373   -0.6225861025
C        0.2787745808    0.3524677311   -0.4456464843
C        0.9313202352   -1.7614383254   -1.6300094718
C       -0.8235698692    1.8094686973    1.3071241578
N       -0.4902588764   -1.7211747640    0.3971605504
N       -0.5151263112    0.5247784634    0.7060355593
O        0.8075364618    1.2511719144   -1.0893713540
O        1.7916093852   -3.6196635635   -2.8736445911
H        1.1762506377   -6.4216916103   -1.2702609898
H       -0.0211762785   -4.1828161958   -0.1858973942
H        2.5755077963   -5.4544208899   -3.4352159475
H       -1.5408841762   -0.8472427190    2.0078880085
H        1.4711903897   -1.1322774089   -2.3341940768
H       -0.4535603914    1.8610831757    2.3359471449
H       -1.9015124826    1.9994632352    1.2987987784
H       -0.3231761346    2.5742801401    0.7101636276
21   
torsion grid (180,)
C        1.1521625064   -5.4321367514   -1.7100839964
C        0.6740651310   -4.2782393551   -1.0247993141
C        1.8933411425   -4.9707241141   -2.7690926472
C        1.1564881280   -3.1794360631   -1.7122024413
C       -0.8641427336   -0.7486847270    1.1775995527
C        0.3501090294   -1.1350086809   -0.5566456665
C        0.2667906714    0.3466805219   -0.4333578159
C        1.0406630734   -1.7679825089   -1.5434270457
C       -0.9222174454    1.7974776315    1.2670271441
N       -0.3797800313   -1.7376657154    0.4833937780
N       -0.5359149201    0.5126466951    0.7129760848
O        0.7424098473    1.2511767305   -1.1094504369
O        1.9101099115   -3.6132153769   -2.7898726338
H        0.9751368966   -6.4695667581   -1.4585576077
H        0.0553138665   -4.2231762519   -0.1406659794
H        2.4446015914   -5.4626803801   -3.5582593963
H       -1.4837592293   -0.8702207830    2.0616117998
H        1.5499748192   -1.1371139546   -2.2683308310
H       -0.5593150504    1.9078118807    2.2937226439
H       -2.0095248813    1.9226686306    1.2505980833
H       -0.4662129243    2.5688363244    0.6435164526
