29
1 1 C11H15N2O
C                    -1.465271846908     2.245200700166    -0.706728277716
C                    -1.325108975457     0.146171123042    -1.879761544356
C                    -1.945640757392     1.387292843488    -1.713020869210
C                    -0.403001392498     1.912565710613     0.142054103176
C                    -0.260556793583    -0.197785628809    -1.044957829284
C                     0.190273032243     0.659455252913    -0.042051479804
C                     1.286218779142    -1.881192603578    -0.302894177251
C                     1.364281239100    -1.105675643604     1.003950156820
C                    -3.111087295031     1.800931047178    -2.579070815788
C                     0.108841168691     2.847816848961     1.206897565354
C                     0.286046481931    -1.583776167181     1.982837681885
N                     0.448757139236    -1.425845075485    -1.215739804329
N                     2.018592191012    -2.980413227147    -0.470791178687
O                     1.283439767978     0.288733617348     0.723620111707
H                    -1.943792732987     3.212900154264    -0.575526419066
H                    -1.665330614635    -0.543585277338    -2.649192823530
H                     2.358520295591    -1.247779589981     1.433926008375
H                    -2.946692568295     2.793302383286    -3.009304784111
H                    -3.272935758615     1.099177040534    -3.400746602073
H                    -4.034288867204     1.848268816813    -1.991818062571
H                     0.111813943382     2.364159906461     2.188519058019
H                     1.138851625644     3.153785725726     0.997697610569
H                    -0.509702076414     3.745181708955     1.265104301514
H                    -0.716658727291    -1.447452285890     1.570500619121
H                     0.370263579772    -0.998974943812     2.901620994773
H                     0.424711506703    -2.640620909441     2.229293109328
H                     0.327667052732    -1.916723477124    -2.098980284267
H                     1.984064214115    -3.547183784833    -1.312779585666
H                     2.657586690655    -3.281895093924     0.256006896175
