
  -OEChem-12122420533D

 69 73  0     1  0  0  0  0  0999 V2000
   -4.3867  -16.5458   -3.5219 C   0  0  0  0  0  0  0  0  0  0  0  0
   -3.1274  -16.2773   -4.3119 C   0  0  0  0  0  0  0  0  0  0  0  0
   -2.8126  -17.0816   -5.4369 C   0  0  0  0  0  0  0  0  0  0  0  0
   -1.6685  -16.8642   -6.1846 C   0  0  0  0  0  0  0  0  0  0  0  0
   -0.7876  -15.8194   -5.8279 C   0  0  0  0  0  0  0  0  0  0  0  0
   -1.0909  -15.0180   -4.7158 C   0  0  0  0  0  0  0  0  0  0  0  0
   -2.2570  -15.2507   -3.9648 C   0  0  0  0  0  0  0  0  0  0  0  0
   -0.1655  -13.9397   -4.3740 C   0  0  0  0  0  0  0  0  0  0  0  0
   -0.3037  -13.1626   -3.4294 O   0  0  0  0  0  0  0  0  0  0  0  0
    0.9317  -13.8666   -5.2425 N   0  0  0  0  0  0  0  0  0  0  0  0
    1.1649  -14.6864   -6.2998 N   0  0  0  0  0  0  0  0  0  0  0  0
    0.3550  -15.6285   -6.5970 N   0  0  0  0  0  0  0  0  0  0  0  0
    1.9393  -12.7926   -5.0624 C   0  0  0  0  0  0  0  0  0  0  0  0
    1.4366  -11.4788   -5.6623 C   0  0  2  0  0  0  0  0  0  0  0  0
    0.4580  -11.2668   -5.2096 H   0  0  0  0  0  0  0  0  0  0  0  0
    1.2800  -11.4802   -7.1924 C   0  0  0  0  0  0  0  0  0  0  0  0
    1.1700   -9.9845   -7.5700 C   0  0  0  0  0  0  0  0  0  0  0  0
    1.7123   -9.1929   -6.3488 C   0  0  1  0  0  0  0  0  0  0  0  0
    0.8638   -8.7204   -5.8292 H   0  0  0  0  0  0  0  0  0  0  0  0
    2.3357  -10.2483   -5.4087 C   0  0  2  0  0  0  0  0  0  0  0  0
    2.2879   -9.9590   -4.3537 H   0  0  0  0  0  0  0  0  0  0  0  0
    3.8408  -10.4952   -5.7500 C   0  0  0  0  0  0  0  0  0  0  0  0
    4.4123  -11.4198   -5.1181 O   0  0  0  0  0  0  0  0  0  0  0  0
    4.3264   -9.7185   -6.6260 O   0  5  0  0  0  0  0  0  0  0  0  0
    2.6384   -8.0471   -6.7516 C   0  0  0  0  0  0  0  0  0  0  0  0
    2.6528   -7.5985   -7.8993 O   0  0  0  0  0  0  0  0  0  0  0  0
    3.3333   -7.2725   -5.6632 C   0  0  0  0  0  0  0  0  0  0  0  0
    4.5000   -6.5709   -5.9857 C   0  0  0  0  0  0  0  0  0  0  0  0
    5.1715   -5.7965   -5.0389 C   0  0  0  0  0  0  0  0  0  0  0  0
    4.6600   -5.6997   -3.7358 C   0  0  0  0  0  0  0  0  0  0  0  0
    3.4866   -6.3837   -3.4002 C   0  0  0  0  0  0  0  0  0  0  0  0
    2.8391   -7.1680   -4.3556 C   0  0  0  0  0  0  0  0  0  0  0  0
    5.2389   -4.9589   -2.7270 O   0  0  0  0  0  0  0  0  0  0  0  0
    6.4766   -4.3096   -3.0002 C   0  0  0  0  0  0  0  0  0  0  0  0
    6.9448   -3.5979   -1.7338 C   0  0  0  0  0  0  0  0  0  0  0  0
    5.9640   -2.4974   -1.2945 C   0  0  0  0  0  0  0  0  0  0  0  0
    6.4476   -1.7757   -0.0287 C   0  0  0  0  0  0  0  0  0  0  0  0
    6.7113   -2.7659    1.1148 C   0  0  0  0  0  0  0  0  0  0  0  0
    7.6957   -3.8621    0.6825 C   0  0  0  0  0  0  0  0  0  0  0  0
    7.2118   -4.5832   -0.5833 C   0  0  0  0  0  0  0  0  0  0  0  0
   -5.2772  -16.4538   -4.1547 H   0  0  0  0  0  0  0  0  0  0  0  0
   -4.3857  -17.5617   -3.1095 H   0  0  0  0  0  0  0  0  0  0  0  0
   -4.4914  -15.8448   -2.6897 H   0  0  0  0  0  0  0  0  0  0  0  0
   -3.4898  -17.8871   -5.7155 H   0  0  0  0  0  0  0  0  0  0  0  0
   -1.4225  -17.4769   -7.0470 H   0  0  0  0  0  0  0  0  0  0  0  0
   -2.4529  -14.6053   -3.1133 H   0  0  0  0  0  0  0  0  0  0  0  0
    2.8579  -13.1257   -5.5373 H   0  0  0  0  0  0  0  0  0  0  0  0
    2.1176  -12.6890   -3.9926 H   0  0  0  0  0  0  0  0  0  0  0  0
    2.1760  -11.9206   -7.6423 H   0  0  0  0  0  0  0  0  0  0  0  0
    0.4204  -12.0686   -7.5330 H   0  0  0  0  0  0  0  0  0  0  0  0
    1.7580   -9.7406   -8.4558 H   0  0  0  0  0  0  0  0  0  0  0  0
    0.1330   -9.7026   -7.7832 H   0  0  0  0  0  0  0  0  0  0  0  0
    4.8866   -6.6635   -6.9952 H   0  0  0  0  0  0  0  0  0  0  0  0
    6.0870   -5.2877   -5.3208 H   0  0  0  0  0  0  0  0  0  0  0  0
    3.1023   -6.2982   -2.3871 H   0  0  0  0  0  0  0  0  0  0  0  0
    1.9347   -7.6961   -4.0694 H   0  0  0  0  0  0  0  0  0  0  0  0
    7.2244   -5.0500   -3.3188 H   0  0  0  0  0  0  0  0  0  0  0  0
    6.3475   -3.5825   -3.8158 H   0  0  0  0  0  0  0  0  0  0  0  0
    7.8999   -3.1156   -1.9961 H   0  0  0  0  0  0  0  0  0  0  0  0
    5.8245   -1.7776   -2.1113 H   0  0  0  0  0  0  0  0  0  0  0  0
    4.9849   -2.9536   -1.1080 H   0  0  0  0  0  0  0  0  0  0  0  0
    7.3760   -1.2302   -0.2526 H   0  0  0  0  0  0  0  0  0  0  0  0
    5.7104   -1.0246    0.2812 H   0  0  0  0  0  0  0  0  0  0  0  0
    7.0932   -2.2365    1.9970 H   0  0  0  0  0  0  0  0  0  0  0  0
    5.7620   -3.2324    1.4122 H   0  0  0  0  0  0  0  0  0  0  0  0
    8.6781   -3.4069    0.4899 H   0  0  0  0  0  0  0  0  0  0  0  0
    7.8398   -4.5850    1.4947 H   0  0  0  0  0  0  0  0  0  0  0  0
    6.2870   -5.1300   -0.3667 H   0  0  0  0  0  0  0  0  0  0  0  0
    7.9500   -5.3308   -0.8995 H   0  0  0  0  0  0  0  0  0  0  0  0
  1  2  1  0  0  0  0
  1 41  1  0  0  0  0
  1 42  1  0  0  0  0
  1 43  1  0  0  0  0
  2  3  1  0  0  0  0
  2  7  2  0  0  0  0
  3  4  2  0  0  0  0
  3 44  1  0  0  0  0
  4  5  1  0  0  0  0
  4 45  1  0  0  0  0
  5  6  2  0  0  0  0
  5 12  1  0  0  0  0
  6  7  1  0  0  0  0
  6  8  1  0  0  0  0
  7 46  1  0  0  0  0
  8  9  2  0  0  0  0
  8 10  1  0  0  0  0
 10 11  1  0  0  0  0
 10 13  1  0  0  0  0
 11 12  2  0  0  0  0
 13 14  1  0  0  0  0
 13 47  1  0  0  0  0
 13 48  1  0  0  0  0
 14 15  1  0  0  0  0
 14 16  1  0  0  0  0
 14 20  1  0  0  0  0
 16 17  1  0  0  0  0
 16 49  1  0  0  0  0
 16 50  1  0  0  0  0
 17 18  1  0  0  0  0
 17 51  1  0  0  0  0
 17 52  1  0  0  0  0
 18 19  1  0  0  0  0
 18 20  1  0  0  0  0
 18 25  1  0  0  0  0
 20 21  1  0  0  0  0
 20 22  1  0  0  0  0
 22 23  2  0  0  0  0
 22 24  1  0  0  0  0
 25 26  2  0  0  0  0
 25 27  1  0  0  0  0
 27 28  2  0  0  0  0
 27 32  1  0  0  0  0
 28 29  1  0  0  0  0
 28 53  1  0  0  0  0
 29 30  2  0  0  0  0
 29 54  1  0  0  0  0
 30 31  1  0  0  0  0
 30 33  1  0  0  0  0
 31 32  2  0  0  0  0
 31 55  1  0  0  0  0
 32 56  1  0  0  0  0
 33 34  1  0  0  0  0
 34 35  1  0  0  0  0
 34 57  1  0  0  0  0
 34 58  1  0  0  0  0
 35 36  1  0  0  0  0
 35 40  1  0  0  0  0
 35 59  1  0  0  0  0
 36 37  1  0  0  0  0
 36 60  1  0  0  0  0
 36 61  1  0  0  0  0
 37 38  1  0  0  0  0
 37 62  1  0  0  0  0
 37 63  1  0  0  0  0
 38 39  1  0  0  0  0
 38 64  1  0  0  0  0
 38 65  1  0  0  0  0
 39 40  1  0  0  0  0
 39 66  1  0  0  0  0
 39 67  1  0  0  0  0
 40 68  1  0  0  0  0
 40 69  1  0  0  0  0
M  CHG  1  24  -1
M  END
$$$$
