69
-1 1 C29H32N3O5
C                    -4.386728340326   -16.545842246016    -3.521884012895
C                    -3.127445215675   -16.277257955857    -4.311913361533
C                    -2.812644630561   -17.081629784940    -5.436940438928
C                    -1.668463507767   -16.864151238995    -6.184565362438
C                    -0.787618353765   -15.819403710026    -5.827948860755
C                    -1.090897311641   -15.017999178650    -4.715798972108
C                    -2.257016142467   -15.250723574041    -3.964839946415
C                    -0.165507586410   -13.939744381540    -4.374040438266
O                    -0.303728192286   -13.162638646367    -3.429376602617
N                     0.931715488441   -13.866568470948    -5.242473836043
N                     1.164948703594   -14.686376542144    -6.299781073893
N                     0.355038601076   -15.628538528484    -6.596986051076
C                     1.939255599333   -12.792585160531    -5.062431783697
C                     1.436594384460   -11.478801672779    -5.662331851081
H                     0.458033515195   -11.266814679213    -5.209561251959
C                     1.280016954528   -11.480230832256    -7.192425625542
C                     1.170038668680    -9.984476568227    -7.570026257924
C                     1.712343570006    -9.192856682230    -6.348765293750
H                     0.863767372431    -8.720357515303    -5.829219187691
C                     2.335675535486   -10.248274746854    -5.408711152535
H                     2.287936612483    -9.958959648420    -4.353716509056
C                     3.840776513709   -10.495195310482    -5.750005635006
O                     4.412277100725   -11.419817728758    -5.118145058008
O                     4.326433391516    -9.718463687721    -6.626050151562
C                     2.638386628005    -8.047063447522    -6.751606456681
O                     2.652785148316    -7.598536886672    -7.899285557257
C                     3.333337416010    -7.272459609284    -5.663223345344
C                     4.499986556486    -6.570936683744    -5.985706107153
C                     5.171503223851    -5.796529974599    -5.038923927505
C                     4.660034764491    -5.699740875091    -3.735841736479
C                     3.486559423209    -6.383723163629    -3.400191934396
C                     2.839104655284    -7.168022163380    -4.355581467132
O                     5.238931989471    -4.958907581240    -2.726979862625
C                     6.476561907633    -4.309598036608    -3.000207513470
C                     6.944793165105    -3.597889682746    -1.733769759470
C                     5.964030341841    -2.497396763701    -1.294484458380
C                     6.447642002646    -1.775716038845    -0.028716192928
C                     6.711343532348    -2.765873191669     1.114823768174
C                     7.695704967024    -3.862076721955     0.682489453167
C                     7.211845143273    -4.583202546296    -0.583339582995
H                    -5.277198963201   -16.453791081746    -4.154742993828
H                    -4.385655465282   -17.561707065864    -3.109525740708
H                    -4.491381780491   -15.844828129656    -2.689749594677
H                    -3.489826880814   -17.887138556552    -5.715513975541
H                    -1.422516868337   -17.476921779868    -7.047045675348
H                    -2.452946460100   -14.605261666324    -3.113257821196
H                     2.857855345939   -13.125729678945    -5.537273327089
H                     2.117629827989   -12.688998705667    -3.992593973464
H                     2.176007975232   -11.920595845360    -7.642270366824
H                     0.420437273580   -12.068646441809    -7.532967967277
H                     1.758029751108    -9.740621644600    -8.455807031894
H                     0.133036748878    -9.702578110655    -7.783184241281
H                     4.886611433052    -6.663541219207    -6.995244724575
H                     6.087008183375    -5.287744575992    -5.320830476196
H                     3.102316775443    -6.298187747770    -2.387113380732
H                     1.934672914105    -7.696135140470    -4.069399796300
H                     7.224380039035    -5.049998585212    -3.318840579865
H                     6.347548762969    -3.582546829827    -3.815781701305
H                     7.899868107281    -3.115592106541    -1.996053443504
H                     5.824489544660    -1.777584997501    -2.111277108493
H                     4.984892367786    -2.953589192004    -1.107953529241
H                     7.375952786081    -1.230178737904    -0.252616172031
H                     5.710433858444    -1.024645033963     0.281150063410
H                     7.093156494702    -2.236450643860     1.996952637296
H                     5.761992022713    -3.232409875542     1.412246073146
H                     8.678145504300    -3.406856556233     0.489926724051
H                     7.839829692999    -4.585015253414     1.494677213777
H                     6.286999687387    -5.129966644056    -0.366671286736
H                     7.950037498878    -5.330755051904    -0.899502153831
