69
-1 1 C29H32N3O5
C                     2.306455190137    -8.988484294720     0.542485366630
C                     2.135260605037   -10.251558450200    -0.269599130338
C                     2.959662214886   -11.375090035754    -0.014545335237
C                     2.847594171190   -12.538727729268    -0.757170179702
C                     1.907664979298   -12.608317130731    -1.803808289508
C                     1.070173319168   -11.510280673465    -2.047649602697
C                     1.183957929067   -10.340113938609    -1.279956316111
C                     0.149569641967   -11.597537624501    -3.176647779342
O                    -0.749186615419   -10.792633453728    -3.436462677059
N                     0.423125107511   -12.690078142509    -3.998106729974
N                     1.169499003177   -13.782394299962    -3.637822014200
N                     1.850757066267   -13.771520480882    -2.567059085784
C                    -0.025132176224   -12.704174063415    -5.405137708791
C                     0.351328941827   -11.409422598090    -6.147288336391
H                    -0.431846868711   -10.671402479084    -5.945317185726
C                     0.481454543991   -11.586928415193    -7.683015625602
C                     1.554468205962   -10.556665635962    -8.133846139358
C                     1.909606763322    -9.768938377527    -6.858890828352
H                     1.145526243638    -8.984160440649    -6.712246991308
C                     1.682677403441   -10.767020228961    -5.699813901546
H                     1.536271341593   -10.223848683533    -4.766727187950
C                     2.827889374025   -11.814636168292    -5.504951802198
O                     3.450295538683   -11.733046758100    -4.402220214839
O                     2.992122034948   -12.643058704717    -6.437241389703
C                     3.190837279947    -8.951137200319    -6.930646083346
O                     3.767144574072    -8.771172032129    -8.001511629807
C                     3.625890443960    -8.172039705626    -5.716192359558
C                     3.993320375021    -6.826220168213    -5.907330818795
C                     4.348140568787    -6.016664206960    -4.832826639250
C                     4.370775981096    -6.552223194247    -3.534970485938
C                     4.054365273774    -7.900498277962    -3.336540430414
C                     3.678897580101    -8.702231835852    -4.419589525427
O                     4.719212816005    -5.681681506837    -2.526349668179
C                     4.714523427484    -6.189716415740    -1.194037236191
C                     5.097582099452    -5.066415429739    -0.239153946126
C                     4.974023385385    -5.544959938288     1.217146135101
C                     5.369610264314    -4.446321843576     2.214041772316
C                     6.778786829174    -3.907369115835     1.928167140684
C                     6.906290263007    -3.428355518147     0.474927989781
C                     6.510621541531    -4.530303198262    -0.517400387722
H                     2.014656350839    -9.143308041960     1.588783755251
H                     3.351443870453    -8.658035971237     0.544568636765
H                     1.697186056113    -8.173906542281     0.141464324591
H                     3.708400744210   -11.312299757099     0.773483538333
H                     3.494451450419   -13.393585768344    -0.584377754598
H                     0.537339747977    -9.501536486220    -1.522757700830
H                    -1.107626042632   -12.868216072373    -5.439154706881
H                     0.491094792784   -13.556331017964    -5.845570779376
H                     0.827044304963   -12.595826288973    -7.917087152709
H                    -0.483132564926   -11.428271382324    -8.181459451567
H                     2.444925006728   -11.074780534629    -8.490324996757
H                     1.205796575124    -9.893359015434    -8.932020874671
H                     3.985278405449    -6.420790593166    -6.915456337269
H                     4.608560109677    -4.970738676603    -4.973304603980
H                     4.096391342489    -8.355753596926    -2.353225454256
H                     3.497227805113    -9.762336664277    -4.240102876314
H                     3.716015895319    -6.575801304006    -0.947690305952
H                     5.428909063484    -7.021327223693    -1.105992525501
H                     4.382351303946    -4.245649563667    -0.393402139064
H                     3.949802026572    -5.884430675004     1.416297681418
H                     5.626910051542    -6.417537904897     1.364858047552
H                     4.647248239674    -3.621011255450     2.144445205793
H                     5.309264112316    -4.830095894340     3.239822023690
H                     7.021590309435    -3.093295103058     2.622529409546
H                     7.512591840027    -4.705397909364     2.109579582086
H                     6.255015867517    -2.555762850995     0.324406410930
H                     7.930741438191    -3.091566852622     0.274676929639
H                     7.225171132506    -5.362953728305    -0.439778314330
H                     6.567416305891    -4.163672345956    -1.546574776433
