
  -OEChem-12102412483D

 52 55  0     0  0  0  0  0  0999 V2000
   -2.7021    5.4324   -3.3071 C   0  0  0  0  0  0  0  0  0  0  0  0
   -1.7749    4.3502   -2.7371 C   0  0  0  0  0  0  0  0  0  0  0  0
   -2.3934    3.7004   -1.5207 C   0  0  0  0  0  0  0  0  0  0  0  0
   -2.1959    4.2074   -0.2879 C   0  0  0  0  0  0  0  0  0  0  0  0
   -1.3565    5.4064   -0.1387 C   0  0  0  0  0  0  0  0  0  0  0  0
   -1.3147    6.2269    1.0025 C   0  0  0  0  0  0  0  0  0  0  0  0
   -0.4258    7.2972    1.0849 C   0  0  0  0  0  0  0  0  0  0  0  0
    0.4476    7.5567    0.0196 C   0  0  0  0  0  0  0  0  0  0  0  0
    0.4082    6.7716   -1.1334 C   0  0  0  0  0  0  0  0  0  0  0  0
   -0.5045    5.7184   -1.2210 C   0  0  0  0  0  0  0  0  0  0  0  0
   -0.5037    4.9551   -2.3522 O   0  0  0  0  0  0  0  0  0  0  0  0
   -2.7676    3.5111    0.9146 C   0  0  0  0  0  0  0  0  0  0  0  0
   -1.7899    2.5017    1.5433 N   0  3  0  0  0  0  0  0  0  0  0  0
   -0.4704    3.1184    1.9658 C   0  0  0  0  0  0  0  0  0  0  0  0
    0.4376    2.0477    2.5856 C   0  0  0  0  0  0  0  0  0  0  0  0
    0.6512    0.9058    1.7132 N   0  0  0  0  0  0  0  0  0  0  0  0
   -0.6313    0.2963    1.3807 C   0  0  0  0  0  0  0  0  0  0  0  0
   -1.5612    1.2858    0.6698 C   0  0  0  0  0  0  0  0  0  0  0  0
    1.6009    1.0221    0.6485 C   0  0  0  0  0  0  0  0  0  0  0  0
    2.2846    2.2163    0.3639 C   0  0  0  0  0  0  0  0  0  0  0  0
    3.2265    2.2673   -0.6701 C   0  0  0  0  0  0  0  0  0  0  0  0
    3.4962    1.1407   -1.4463 C   0  0  0  0  0  0  0  0  0  0  0  0
    2.8268   -0.0545   -1.1596 C   0  0  0  0  0  0  0  0  0  0  0  0
    1.8984   -0.1179   -0.1217 C   0  0  0  0  0  0  0  0  0  0  0  0
   -1.4063    3.3088   -3.7919 C   0  0  0  0  0  0  0  0  0  0  0  0
   -3.6500    4.9903   -3.6286 H   0  0  0  0  0  0  0  0  0  0  0  0
   -2.9184    6.1992   -2.5582 H   0  0  0  0  0  0  0  0  0  0  0  0
   -2.2280    5.9074   -4.1708 H   0  0  0  0  0  0  0  0  0  0  0  0
   -3.0139    2.8208   -1.6806 H   0  0  0  0  0  0  0  0  0  0  0  0
   -1.9930    6.0473    1.8328 H   0  0  0  0  0  0  0  0  0  0  0  0
   -0.4158    7.9298    1.9672 H   0  0  0  0  0  0  0  0  0  0  0  0
    1.1470    8.3856    0.0799 H   0  0  0  0  0  0  0  0  0  0  0  0
    1.0618    6.9691   -1.9776 H   0  0  0  0  0  0  0  0  0  0  0  0
   -3.6543    2.9301    0.6546 H   0  0  0  0  0  0  0  0  0  0  0  0
   -3.0303    4.2005    1.7185 H   0  0  0  0  0  0  0  0  0  0  0  0
   -2.2488    2.1647    2.3975 H   0  0  0  0  0  0  0  0  0  0  0  0
   -0.0343    3.5485    1.0677 H   0  0  0  0  0  0  0  0  0  0  0  0
   -0.6962    3.9237    2.6672 H   0  0  0  0  0  0  0  0  0  0  0  0
    1.3890    2.5077    2.8564 H   0  0  0  0  0  0  0  0  0  0  0  0
   -0.0073    1.6846    3.5217 H   0  0  0  0  0  0  0  0  0  0  0  0
   -0.4984   -0.5655    0.7290 H   0  0  0  0  0  0  0  0  0  0  0  0
   -1.1009   -0.0740    2.3016 H   0  0  0  0  0  0  0  0  0  0  0  0
   -2.5415    0.8514    0.4575 H   0  0  0  0  0  0  0  0  0  0  0  0
   -1.1137    1.6440   -0.2573 H   0  0  0  0  0  0  0  0  0  0  0  0
    2.1141    3.1197    0.9387 H   0  0  0  0  0  0  0  0  0  0  0  0
    3.7435    3.2023   -0.8669 H   0  0  0  0  0  0  0  0  0  0  0  0
    4.2244    1.1857   -2.2503 H   0  0  0  0  0  0  0  0  0  0  0  0
    3.0436   -0.9518   -1.7326 H   0  0  0  0  0  0  0  0  0  0  0  0
    1.4361   -1.0718    0.1140 H   0  0  0  0  0  0  0  0  0  0  0  0
   -0.7268    2.5593   -3.3760 H   0  0  0  0  0  0  0  0  0  0  0  0
   -0.9085    3.7946   -4.6344 H   0  0  0  0  0  0  0  0  0  0  0  0
   -2.3054    2.8084   -4.1629 H   0  0  0  0  0  0  0  0  0  0  0  0
  1  2  1  0  0  0  0
  1 26  1  0  0  0  0
  1 27  1  0  0  0  0
  1 28  1  0  0  0  0
  2  3  1  0  0  0  0
  2 11  1  0  0  0  0
  2 25  1  0  0  0  0
  3  4  2  0  0  0  0
  3 29  1  0  0  0  0
  4  5  1  0  0  0  0
  4 12  1  0  0  0  0
  5  6  2  0  0  0  0
  5 10  1  0  0  0  0
  6  7  1  0  0  0  0
  6 30  1  0  0  0  0
  7  8  2  0  0  0  0
  7 31  1  0  0  0  0
  8  9  1  0  0  0  0
  8 32  1  0  0  0  0
  9 10  2  0  0  0  0
  9 33  1  0  0  0  0
 10 11  1  0  0  0  0
 12 13  1  0  0  0  0
 12 34  1  0  0  0  0
 12 35  1  0  0  0  0
 13 14  1  0  0  0  0
 13 18  1  0  0  0  0
 13 36  1  0  0  0  0
 14 15  1  0  0  0  0
 14 37  1  0  0  0  0
 14 38  1  0  0  0  0
 15 16  1  0  0  0  0
 15 39  1  0  0  0  0
 15 40  1  0  0  0  0
 16 17  1  0  0  0  0
 16 19  1  0  0  0  0
 17 18  1  0  0  0  0
 17 41  1  0  0  0  0
 17 42  1  0  0  0  0
 18 43  1  0  0  0  0
 18 44  1  0  0  0  0
 19 20  1  0  0  0  0
 19 24  2  0  0  0  0
 20 21  2  0  0  0  0
 20 45  1  0  0  0  0
 21 22  1  0  0  0  0
 21 46  1  0  0  0  0
 22 23  2  0  0  0  0
 22 47  1  0  0  0  0
 23 24  1  0  0  0  0
 23 48  1  0  0  0  0
 24 49  1  0  0  0  0
 25 50  1  0  0  0  0
 25 51  1  0  0  0  0
 25 52  1  0  0  0  0
M  CHG  1  13   1
M  END
$$$$
