
  -OEChem-12102412483D

 69 73  0     1  0  0  0  0  0999 V2000
   -1.7317  -18.6662   -6.4340 C   0  0  0  0  0  0  0  0  0  0  0  0
   -1.6206  -17.3721   -5.6626 C   0  0  0  0  0  0  0  0  0  0  0  0
   -2.6435  -16.9991   -4.7543 C   0  0  0  0  0  0  0  0  0  0  0  0
   -2.5759  -15.8190   -4.0338 C   0  0  0  0  0  0  0  0  0  0  0  0
   -1.4680  -14.9599   -4.2010 C   0  0  0  0  0  0  0  0  0  0  0  0
   -0.4498  -15.3211   -5.0971 C   0  0  0  0  0  0  0  0  0  0  0  0
   -0.5314  -16.5229   -5.8220 C   0  0  0  0  0  0  0  0  0  0  0  0
    0.6860  -14.4119   -5.2591 C   0  0  0  0  0  0  0  0  0  0  0  0
    1.6418  -14.6098   -6.0043 O   0  0  0  0  0  0  0  0  0  0  0  0
    0.5769  -13.2630   -4.4594 N   0  0  0  0  0  0  0  0  0  0  0  0
   -0.4433  -12.9818   -3.6100 N   0  0  0  0  0  0  0  0  0  0  0  0
   -1.4297  -13.7805   -3.4640 N   0  0  0  0  0  0  0  0  0  0  0  0
    1.5999  -12.1887   -4.5354 C   0  0  0  0  0  0  0  0  0  0  0  0
    1.1143  -11.0619   -5.4488 C   0  0  2  0  0  0  0  0  0  0  0  0
    0.0922  -10.8111   -5.1248 H   0  0  0  0  0  0  0  0  0  0  0  0
    1.0829  -11.3997   -6.9496 C   0  0  0  0  0  0  0  0  0  0  0  0
    0.9689  -10.0285   -7.6555 C   0  0  0  0  0  0  0  0  0  0  0  0
    1.3704   -8.9661   -6.5967 C   0  0  1  0  0  0  0  0  0  0  0  0
    0.4617   -8.4406   -6.2627 H   0  0  0  0  0  0  0  0  0  0  0  0
    1.9430   -9.7608   -5.4025 C   0  0  2  0  0  0  0  0  0  0  0  0
    1.7913   -9.2524   -4.4442 H   0  0  0  0  0  0  0  0  0  0  0  0
    3.4819   -9.9902   -5.5537 C   0  0  0  0  0  0  0  0  0  0  0  0
    4.0191  -10.7419   -4.7018 O   0  0  0  0  0  0  0  0  0  0  0  0
    4.0233   -9.3697   -6.5170 O   0  5  0  0  0  0  0  0  0  0  0  0
    2.2874   -7.8829   -7.1616 C   0  0  0  0  0  0  0  0  0  0  0  0
    2.3971   -7.6951   -8.3746 O   0  0  0  0  0  0  0  0  0  0  0  0
    2.8384   -6.8482   -6.2164 C   0  0  0  0  0  0  0  0  0  0  0  0
    3.9963   -6.1563   -6.5876 C   0  0  0  0  0  0  0  0  0  0  0  0
    4.5388   -5.1551   -5.7813 C   0  0  0  0  0  0  0  0  0  0  0  0
    3.9032   -4.8165   -4.5771 C   0  0  0  0  0  0  0  0  0  0  0  0
    2.7359   -5.4881   -4.1978 C   0  0  0  0  0  0  0  0  0  0  0  0
    2.2184   -6.4988   -5.0087 C   0  0  0  0  0  0  0  0  0  0  0  0
    4.3509   -3.8430   -3.7080 O   0  0  0  0  0  0  0  0  0  0  0  0
    5.5622   -3.1683   -4.0293 C   0  0  0  0  0  0  0  0  0  0  0  0
    5.8582   -2.1611   -2.9238 C   0  0  0  0  0  0  0  0  0  0  0  0
    7.2287   -1.5016   -3.1482 C   0  0  0  0  0  0  0  0  0  0  0  0
    7.5505   -0.4711   -2.0562 C   0  0  0  0  0  0  0  0  0  0  0  0
    6.4438    0.5866   -1.9356 C   0  0  0  0  0  0  0  0  0  0  0  0
    5.0724   -0.0673   -1.7136 C   0  0  0  0  0  0  0  0  0  0  0  0
    4.7561   -1.0962   -2.8075 C   0  0  0  0  0  0  0  0  0  0  0  0
   -1.8129  -19.5247   -5.7570 H   0  0  0  0  0  0  0  0  0  0  0  0
   -2.6237  -18.6703   -7.0714 H   0  0  0  0  0  0  0  0  0  0  0  0
   -0.8601  -18.8233   -7.0746 H   0  0  0  0  0  0  0  0  0  0  0  0
   -3.5001  -17.6583   -4.6243 H   0  0  0  0  0  0  0  0  0  0  0  0
   -3.3571  -15.5279   -3.3374 H   0  0  0  0  0  0  0  0  0  0  0  0
    0.2781  -16.7611   -6.5062 H   0  0  0  0  0  0  0  0  0  0  0  0
    2.5263  -12.6288   -4.8919 H   0  0  0  0  0  0  0  0  0  0  0  0
    1.7576  -11.8293   -3.5192 H   0  0  0  0  0  0  0  0  0  0  0  0
    2.0207  -11.8939   -7.2202 H   0  0  0  0  0  0  0  0  0  0  0  0
    0.2682  -12.0837   -7.2141 H   0  0  0  0  0  0  0  0  0  0  0  0
    1.6336   -9.9558   -8.5173 H   0  0  0  0  0  0  0  0  0  0  0  0
   -0.0490   -9.8469   -8.0176 H   0  0  0  0  0  0  0  0  0  0  0  0
    4.4803   -6.4370   -7.5173 H   0  0  0  0  0  0  0  0  0  0  0  0
    5.4526   -4.6596   -6.0914 H   0  0  0  0  0  0  0  0  0  0  0  0
    2.2541   -5.2130   -3.2632 H   0  0  0  0  0  0  0  0  0  0  0  0
    1.3157   -7.0108   -4.6897 H   0  0  0  0  0  0  0  0  0  0  0  0
    6.3842   -3.8932   -4.1156 H   0  0  0  0  0  0  0  0  0  0  0  0
    5.4637   -2.6511   -4.9959 H   0  0  0  0  0  0  0  0  0  0  0  0
    5.8962   -2.7193   -1.9775 H   0  0  0  0  0  0  0  0  0  0  0  0
    8.0133   -2.2677   -3.1855 H   0  0  0  0  0  0  0  0  0  0  0  0
    7.2316   -1.0014   -4.1278 H   0  0  0  0  0  0  0  0  0  0  0  0
    7.6589   -0.9902   -1.0937 H   0  0  0  0  0  0  0  0  0  0  0  0
    8.5150    0.0087   -2.2638 H   0  0  0  0  0  0  0  0  0  0  0  0
    6.6725    1.2839   -1.1198 H   0  0  0  0  0  0  0  0  0  0  0  0
    6.4132    1.1818   -2.8594 H   0  0  0  0  0  0  0  0  0  0  0  0
    5.0656   -0.5676   -0.7350 H   0  0  0  0  0  0  0  0  0  0  0  0
    4.2878    0.6985   -1.6781 H   0  0  0  0  0  0  0  0  0  0  0  0
    4.6606   -0.5804   -3.7747 H   0  0  0  0  0  0  0  0  0  0  0  0
    3.7957   -1.5834   -2.6153 H   0  0  0  0  0  0  0  0  0  0  0  0
  1  2  1  0  0  0  0
  1 41  1  0  0  0  0
  1 42  1  0  0  0  0
  1 43  1  0  0  0  0
  2  3  1  0  0  0  0
  2  7  2  0  0  0  0
  3  4  2  0  0  0  0
  3 44  1  0  0  0  0
  4  5  1  0  0  0  0
  4 45  1  0  0  0  0
  5  6  2  0  0  0  0
  5 12  1  0  0  0  0
  6  7  1  0  0  0  0
  6  8  1  0  0  0  0
  7 46  1  0  0  0  0
  8  9  2  0  0  0  0
  8 10  1  0  0  0  0
 10 11  1  0  0  0  0
 10 13  1  0  0  0  0
 11 12  2  0  0  0  0
 13 14  1  0  0  0  0
 13 47  1  0  0  0  0
 13 48  1  0  0  0  0
 14 15  1  0  0  0  0
 14 16  1  0  0  0  0
 14 20  1  0  0  0  0
 16 17  1  0  0  0  0
 16 49  1  0  0  0  0
 16 50  1  0  0  0  0
 17 18  1  0  0  0  0
 17 51  1  0  0  0  0
 17 52  1  0  0  0  0
 18 19  1  0  0  0  0
 18 20  1  0  0  0  0
 18 25  1  0  0  0  0
 20 21  1  0  0  0  0
 20 22  1  0  0  0  0
 22 23  2  0  0  0  0
 22 24  1  0  0  0  0
 25 26  2  0  0  0  0
 25 27  1  0  0  0  0
 27 28  2  0  0  0  0
 27 32  1  0  0  0  0
 28 29  1  0  0  0  0
 28 53  1  0  0  0  0
 29 30  2  0  0  0  0
 29 54  1  0  0  0  0
 30 31  1  0  0  0  0
 30 33  1  0  0  0  0
 31 32  2  0  0  0  0
 31 55  1  0  0  0  0
 32 56  1  0  0  0  0
 33 34  1  0  0  0  0
 34 35  1  0  0  0  0
 34 57  1  0  0  0  0
 34 58  1  0  0  0  0
 35 36  1  0  0  0  0
 35 40  1  0  0  0  0
 35 59  1  0  0  0  0
 36 37  1  0  0  0  0
 36 60  1  0  0  0  0
 36 61  1  0  0  0  0
 37 38  1  0  0  0  0
 37 62  1  0  0  0  0
 37 63  1  0  0  0  0
 38 39  1  0  0  0  0
 38 64  1  0  0  0  0
 38 65  1  0  0  0  0
 39 40  1  0  0  0  0
 39 66  1  0  0  0  0
 39 67  1  0  0  0  0
 40 68  1  0  0  0  0
 40 69  1  0  0  0  0
M  CHG  1  24  -1
M  END
$$$$
