
  -OEChem-12122420533D

 69 73  0     1  0  0  0  0  0999 V2000
   -0.8821  -13.0353    1.9780 C   0  0  0  0  0  0  0  0  0  0  0  0
    0.2732  -12.5751    1.1202 C   0  0  0  0  0  0  0  0  0  0  0  0
    1.3421  -11.8479    1.7039 C   0  0  0  0  0  0  0  0  0  0  0  0
    2.4165  -11.4102    0.9493 C   0  0  0  0  0  0  0  0  0  0  0  0
    2.4593  -11.6886   -0.4346 C   0  0  0  0  0  0  0  0  0  0  0  0
    1.4062  -12.4081   -1.0210 C   0  0  0  0  0  0  0  0  0  0  0  0
    0.3201  -12.8465   -0.2420 C   0  0  0  0  0  0  0  0  0  0  0  0
    1.4740  -12.6732   -2.4558 C   0  0  0  0  0  0  0  0  0  0  0  0
    0.6223  -13.2862   -3.1017 O   0  0  0  0  0  0  0  0  0  0  0  0
    2.6321  -12.1575   -3.0532 N   0  0  0  0  0  0  0  0  0  0  0  0
    3.6180  -11.4697   -2.4180 N   0  0  0  0  0  0  0  0  0  0  0  0
    3.5532  -11.2365   -1.1643 N   0  0  0  0  0  0  0  0  0  0  0  0
    2.8150  -12.2983   -4.5138 C   0  0  0  0  0  0  0  0  0  0  0  0
    2.0696  -11.1956   -5.2734 C   0  0  2  0  0  0  0  0  0  0  0  0
    1.1325  -11.0013   -4.7313 H   0  0  0  0  0  0  0  0  0  0  0  0
    1.6908  -11.5604   -6.7210 C   0  0  0  0  0  0  0  0  0  0  0  0
    1.3639  -10.1979   -7.3933 C   0  0  0  0  0  0  0  0  0  0  0  0
    1.8168   -9.1094   -6.3840 C   0  0  1  0  0  0  0  0  0  0  0  0
    0.9437   -8.7940   -5.7906 H   0  0  0  0  0  0  0  0  0  0  0  0
    2.8005   -9.8503   -5.4561 C   0  0  2  0  0  0  0  0  0  0  0  0
    2.9529   -9.3364   -4.5008 H   0  0  0  0  0  0  0  0  0  0  0  0
    4.1997   -9.9264   -6.1659 C   0  0  0  0  0  0  0  0  0  0  0  0
    4.4478   -8.9206   -6.8952 O   0  0  0  0  0  0  0  0  0  0  0  0
    4.9328  -10.9254   -5.9525 O   0  5  0  0  0  0  0  0  0  0  0  0
    2.3498   -7.8456   -7.0501 C   0  0  0  0  0  0  0  0  0  0  0  0
    2.1573   -7.6179   -8.2464 O   0  0  0  0  0  0  0  0  0  0  0  0
    2.8645   -6.7355   -6.1729 C   0  0  0  0  0  0  0  0  0  0  0  0
    3.6909   -5.7574   -6.7531 C   0  0  0  0  0  0  0  0  0  0  0  0
    4.1688   -4.6875   -6.0092 C   0  0  0  0  0  0  0  0  0  0  0  0
    3.8171   -4.5583   -4.6553 C   0  0  0  0  0  0  0  0  0  0  0  0
    2.9813   -5.5092   -4.0636 C   0  0  0  0  0  0  0  0  0  0  0  0
    2.5188   -6.5907   -4.8285 C   0  0  0  0  0  0  0  0  0  0  0  0
    4.3417   -3.4646   -3.9984 O   0  0  0  0  0  0  0  0  0  0  0  0
    4.1003   -3.3504   -2.6006 C   0  0  0  0  0  0  0  0  0  0  0  0
    4.8661   -2.1402   -2.0775 C   0  0  0  0  0  0  0  0  0  0  0  0
    4.5193   -1.8790   -0.6026 C   0  0  0  0  0  0  0  0  0  0  0  0
    5.2877   -0.6732   -0.0420 C   0  0  0  0  0  0  0  0  0  0  0  0
    6.8032   -0.8331   -0.2315 C   0  0  0  0  0  0  0  0  0  0  0  0
    7.1543   -1.0966   -1.7029 C   0  0  0  0  0  0  0  0  0  0  0  0
    6.3838   -2.3024   -2.2577 C   0  0  0  0  0  0  0  0  0  0  0  0
   -0.5404  -13.7076    2.7739 H   0  0  0  0  0  0  0  0  0  0  0  0
   -1.3780  -12.1859    2.4621 H   0  0  0  0  0  0  0  0  0  0  0  0
   -1.6300  -13.5685    1.3853 H   0  0  0  0  0  0  0  0  0  0  0  0
    1.3119  -11.6304    2.7701 H   0  0  0  0  0  0  0  0  0  0  0  0
    3.2374  -10.8521    1.3902 H   0  0  0  0  0  0  0  0  0  0  0  0
   -0.4743  -13.3975   -0.7375 H   0  0  0  0  0  0  0  0  0  0  0  0
    2.4169  -13.2800   -4.7778 H   0  0  0  0  0  0  0  0  0  0  0  0
    3.8816  -12.2292   -4.7318 H   0  0  0  0  0  0  0  0  0  0  0  0
    2.5517  -12.0293   -7.2083 H   0  0  0  0  0  0  0  0  0  0  0  0
    0.8560  -12.2694   -6.7562 H   0  0  0  0  0  0  0  0  0  0  0  0
    1.9087  -10.0661   -8.3294 H   0  0  0  0  0  0  0  0  0  0  0  0
    0.2986  -10.1007   -7.6261 H   0  0  0  0  0  0  0  0  0  0  0  0
    3.9622   -5.8753   -7.7969 H   0  0  0  0  0  0  0  0  0  0  0  0
    4.8280   -3.9427   -6.4479 H   0  0  0  0  0  0  0  0  0  0  0  0
    2.6876   -5.4318   -3.0225 H   0  0  0  0  0  0  0  0  0  0  0  0
    1.8751   -7.3213   -4.3484 H   0  0  0  0  0  0  0  0  0  0  0  0
    3.0230   -3.2296   -2.4125 H   0  0  0  0  0  0  0  0  0  0  0  0
    4.4334   -4.2631   -2.0848 H   0  0  0  0  0  0  0  0  0  0  0  0
    4.5421   -1.2696   -2.6659 H   0  0  0  0  0  0  0  0  0  0  0  0
    3.4389   -1.7212   -0.4917 H   0  0  0  0  0  0  0  0  0  0  0  0
    4.7683   -2.7719   -0.0110 H   0  0  0  0  0  0  0  0  0  0  0  0
    4.9542    0.2371   -0.5598 H   0  0  0  0  0  0  0  0  0  0  0  0
    5.0490   -0.5354    1.0198 H   0  0  0  0  0  0  0  0  0  0  0  0
    7.3272    0.0590    0.1342 H   0  0  0  0  0  0  0  0  0  0  0  0
    7.1547   -1.6771    0.3787 H   0  0  0  0  0  0  0  0  0  0  0  0
    6.9082   -0.2054   -2.2975 H   0  0  0  0  0  0  0  0  0  0  0  0
    8.2336   -1.2570   -1.8128 H   0  0  0  0  0  0  0  0  0  0  0  0
    6.7062   -3.2129   -1.7318 H   0  0  0  0  0  0  0  0  0  0  0  0
    6.6124   -2.4552   -3.3163 H   0  0  0  0  0  0  0  0  0  0  0  0
  1  2  1  0  0  0  0
  1 41  1  0  0  0  0
  1 42  1  0  0  0  0
  1 43  1  0  0  0  0
  2  3  1  0  0  0  0
  2  7  2  0  0  0  0
  3  4  2  0  0  0  0
  3 44  1  0  0  0  0
  4  5  1  0  0  0  0
  4 45  1  0  0  0  0
  5  6  2  0  0  0  0
  5 12  1  0  0  0  0
  6  7  1  0  0  0  0
  6  8  1  0  0  0  0
  7 46  1  0  0  0  0
  8  9  2  0  0  0  0
  8 10  1  0  0  0  0
 10 11  1  0  0  0  0
 10 13  1  0  0  0  0
 11 12  2  0  0  0  0
 13 14  1  0  0  0  0
 13 47  1  0  0  0  0
 13 48  1  0  0  0  0
 14 15  1  0  0  0  0
 14 16  1  0  0  0  0
 14 20  1  0  0  0  0
 16 17  1  0  0  0  0
 16 49  1  0  0  0  0
 16 50  1  0  0  0  0
 17 18  1  0  0  0  0
 17 51  1  0  0  0  0
 17 52  1  0  0  0  0
 18 19  1  0  0  0  0
 18 20  1  0  0  0  0
 18 25  1  0  0  0  0
 20 21  1  0  0  0  0
 20 22  1  0  0  0  0
 22 23  2  0  0  0  0
 22 24  1  0  0  0  0
 25 26  2  0  0  0  0
 25 27  1  0  0  0  0
 27 28  2  0  0  0  0
 27 32  1  0  0  0  0
 28 29  1  0  0  0  0
 28 53  1  0  0  0  0
 29 30  2  0  0  0  0
 29 54  1  0  0  0  0
 30 31  1  0  0  0  0
 30 33  1  0  0  0  0
 31 32  2  0  0  0  0
 31 55  1  0  0  0  0
 32 56  1  0  0  0  0
 33 34  1  0  0  0  0
 34 35  1  0  0  0  0
 34 57  1  0  0  0  0
 34 58  1  0  0  0  0
 35 36  1  0  0  0  0
 35 40  1  0  0  0  0
 35 59  1  0  0  0  0
 36 37  1  0  0  0  0
 36 60  1  0  0  0  0
 36 61  1  0  0  0  0
 37 38  1  0  0  0  0
 37 62  1  0  0  0  0
 37 63  1  0  0  0  0
 38 39  1  0  0  0  0
 38 64  1  0  0  0  0
 38 65  1  0  0  0  0
 39 40  1  0  0  0  0
 39 66  1  0  0  0  0
 39 67  1  0  0  0  0
 40 68  1  0  0  0  0
 40 69  1  0  0  0  0
M  CHG  1  24  -1
M  END
$$$$
