69
-1 1 C29H32N3O5
C                     5.884979749278   -12.051378336362     1.535976912685
C                     4.671653495747   -11.850199226396     0.658279653989
C                     3.581549029154   -11.072910464701     1.123513784033
C                     2.465913778311   -10.847423372016     0.335194492719
C                     2.404457438984   -11.395763782851    -0.964291880951
C                     3.474244898006   -12.177071603127    -1.427265577623
C                     4.598749841538   -12.400590394718    -0.616260866753
C                     3.374162781633   -12.748946879360    -2.766385869134
O                     4.144743232622   -13.573200838183    -3.250112890571
N                     2.242066589926   -12.292349958580    -3.461517191236
N                     1.231498373573   -11.568524155691    -2.940232764499
N                     1.274330072257   -11.141969217840    -1.734960529905
C                     2.155031126012   -12.568143632055    -4.907498750780
C                     1.498539741738   -11.444650618227    -5.704588604017
H                     0.437516473346   -11.394442347980    -5.429455587123
C                     1.599005749718   -11.684962144792    -7.219833581279
C                     1.208356993766   -10.329528304146    -7.840869579136
C                     1.514757097040    -9.263491150475    -6.754127033571
H                     0.569766859597    -8.788799052019    -6.448200961950
C                     2.095875077686   -10.025608459750    -5.535092048043
H                     1.766972226831    -9.601178718744    -4.584036598373
C                     3.655296784515   -10.035165490135    -5.531853679309
O                     4.200974830719   -10.501549612218    -4.497667077519
O                     4.204421499478    -9.578307256357    -6.577347115307
C                     2.384462060029    -8.120582053276    -7.280677360941
O                     2.523165757072    -7.914016945909    -8.486758046018
C                     2.869421588108    -7.084135642543    -6.304493439288
C                     3.977845502971    -6.306633045629    -6.657118881156
C                     4.467253781526    -5.308647657908    -5.814036045746
C                     3.826588473633    -5.062928506469    -4.590147954852
C                     2.706414094138    -5.819768924100    -4.229714153983
C                     2.242598831073    -6.825232495992    -5.077110286378
O                     4.226267892690    -4.104664610127    -3.682791223683
C                     5.420273690463    -3.380907303937    -3.960202348468
C                     5.690916855687    -2.435962993783    -2.794797160737
C                     7.045157359390    -1.731137166349    -2.975896091100
C                     7.342163080186    -0.763634063455    -1.820985297098
C                     6.210722703088     0.258047641629    -1.636465495364
C                     4.855120637006    -0.440756598948    -1.458369793841
C                     4.563727195077    -1.406958248702    -2.614813466053
H                     6.406931680148   -11.102306052374     1.708027997559
H                     5.605738957244   -12.451690640780     2.517827359162
H                     6.595912138845   -12.743924897670     1.077520002803
H                     3.628835039966   -10.640852067983     2.121868288733
H                     1.630841960897   -10.246775593108     0.684536157157
H                     5.407710139756   -13.001637623043    -1.021613081384
H                     1.608164500167   -13.508704926125    -5.052785835665
H                     3.184038601648   -12.721379456071    -5.228220442582
H                     2.635821108095   -11.925612561736    -7.478453760899
H                     0.963664980585   -12.511299855302    -7.562109168882
H                     1.768652814275   -10.110231489429    -8.750963934519
H                     0.143188627365   -10.316254581746    -8.100109901530
H                     4.468043213381    -6.518138969485    -7.601720215685
H                     5.345180406792    -4.744865930150    -6.110518325613
H                     2.223569221694    -5.619700948690    -3.277024462209
H                     1.381644966869    -7.408576963293    -4.767421727748
H                     6.259748727945    -4.078716029886    -4.088525266130
H                     5.309439730357    -2.808304276745    -4.893813032171
H                     5.742409280271    -3.050374248598    -1.884728025939
H                     7.847713375083    -2.474490238032    -3.059817161918
H                     7.036057241776    -1.170731160561    -3.922314567252
H                     7.462167310929    -1.339465733103    -0.892769754978
H                     8.295169807319    -0.249309893986    -1.996207968542
H                     6.422604136385     0.907968422982    -0.778141832401
H                     6.166362809413     0.909214270181    -2.521138431552
H                     4.859734009221    -1.001024886366    -0.512862957729
H                     4.052576146792     0.302597277085    -1.376780817575
H                     4.456492465520    -0.834303187515    -3.548198000584
H                     3.615100383049    -1.927680482862    -2.454827415203
