22   
torsion grid (-165,)
C        0.1212789869   -3.0028791929   -1.0042787816
C        5.7863834381    1.1764971501    0.3058558129
C        0.0826418590   -1.6429205003   -1.3267655759
C        1.2920019405   -3.5376665978   -0.4582703222
C        5.9378149107   -0.2114539111    0.2306996682
C        4.5235235512    1.7345779885    0.0856683188
C        1.1987382407   -0.8336554961   -1.1087755166
C        2.4053230258   -2.7242475737   -0.2405896622
C        4.8432678793   -1.0261205922   -0.0630806171
C        3.4307839086    0.9166459507   -0.2064846672
C        2.3911214758   -1.3552659915   -0.5708381897
C        3.5659817590   -0.4821174392   -0.2995600223
H       -0.7471573693   -3.6342919540   -1.1723915498
H        6.6374449962    1.8121647658    0.5355203205
H       -0.8180491712   -1.2097951075   -1.7545549468
H        1.3361459458   -4.5898030180   -0.1882125168
H        6.9127407563   -0.6629927076    0.3964382829
H        4.3840193412    2.8105644785    0.1538316194
H        1.1441620941    0.2111757544   -1.3968354650
H        3.2845469558   -3.1633684755    0.2191717702
H        5.0013675140   -2.0968583269   -0.1419278257
H        2.4576814807    1.3791252584   -0.3348340015
22   
torsion grid (-150,)
C        0.1437875608   -3.0004379556   -1.0476631794
C        5.7901119202    1.1682088326    0.2579680429
C        1.2441373643   -3.5073883213   -0.3484956372
C        0.1554741855   -1.6671578325   -1.4702801024
C        4.5059582175    1.7204545027    0.2074623592
C        5.9515216906   -0.2081307999    0.0682660616
C        2.3420219694   -2.6897034357   -0.0738294868
C        1.2547207921   -0.8511943498   -1.1954650045
C        3.3972364865    0.9051054900   -0.0279598135
C        4.8410566647   -1.0210263301   -0.1679746159
C        2.3654934711   -1.3449403154   -0.4868921576
C        3.5423158535   -0.4818565337   -0.2143647350
H       -0.7108798638   -3.6366993240   -1.2620822874
H        6.6537174018    1.8022695224    0.4407664313
H        1.2444295495   -4.5400049130   -0.0085496463
H       -0.6876762844   -1.2644889272   -2.0260185485
H        4.3659293971    2.7876815224    0.3600734843
H        6.9452539281   -0.6484055356    0.0918602001
H        3.1744832607   -3.0917885581    0.4967607410
H        1.2618606892    0.1713192170   -1.5621000057
H        2.4048571435    1.3470742066   -0.0334326489
H        4.9890168513   -2.0819376992   -0.3483117799
22   
torsion grid (-135,)
C        0.1383594197   -2.9906601895   -1.0221376499
C        5.7804614847    1.1615808828    0.2834527041
C        1.1913320299   -3.4551021150   -0.2266352274
C        0.2052359201   -1.7057619927   -1.5716423990
C        4.4851172821    1.6866146837    0.3445793184
C        5.9635368867   -0.1852268725   -0.0482336190
C        2.3007363360   -2.6415816583    0.0161358197
C        1.3156289251   -0.8941428379   -1.3274236712
C        3.3827895253    0.8717224674    0.0757916124
C        4.8603887729   -0.9990022763   -0.3166831861
C        2.3818589749   -1.3502276265   -0.5331115958
C        3.5544235075   -0.4819085306   -0.2621332179
H       -0.7253977347   -3.6228300973   -1.2110321121
H        6.6383512068    1.7952150610    0.4930343333
H        1.1439826554   -4.4478488499    0.2139969780
H       -0.6043784362   -1.3382225430   -2.1972450377
H        4.3322337048    2.7291791719    0.6121932670
H        6.9666368679   -0.6004789716   -0.1055181899
H        3.1029984364   -3.0001823948    0.6557702219
H        1.3700463873    0.0945325450   -1.7758095929
H        2.3782865683    1.2802652397    0.1498884925
H        5.0114953361   -2.0388175566   -0.5950963239
22   
torsion grid (-120,)
C        0.1331288099   -2.9827349776   -1.0059646873
C        5.7768897026    1.1565111481    0.3010032367
C        1.1283759653   -3.3893523175   -0.1107643204
C        0.2625844738   -1.7607645873   -1.6747879011
C        4.4763052433    1.6385422415    0.4835881814
C        5.9703072276   -0.1458008737   -0.1721170310
C        2.2464202906   -2.5806220470    0.1111510273
C        1.3803263425   -0.9521778402   -1.4511138065
C        3.3782725691    0.8245009950    0.1918896793
C        4.8709553305   -0.9586616316   -0.4619214121
C        2.3912293856   -1.3574484136   -0.5641362926
C        3.5609416001   -0.4804756193   -0.2946240266
H       -0.7370257583   -3.6109367813   -1.1783007236
H        6.6314680613    1.7885717438    0.5283948330
H        1.0292164058   -4.3314249580    0.4227449732
H       -0.5056036415   -1.4385057891   -2.3733357557
H        4.3166810173    2.6447655377    0.8630789291
H        6.9775992183   -0.5277363566   -0.3185191135
H        3.0096254510   -2.8897484185    0.8209532163
H        1.4827759713   -0.0069306445   -1.9784603924
H        2.3688909634    1.1950019268    0.3521125793
H        5.0243976872   -1.9673500787   -0.8374481568
22   
torsion grid (-105,)
C        0.1328143463   -2.9814114736   -1.0108770023
C        5.7793716442    1.1543323879    0.2971369939
C        1.0433781405   -3.3090263655   -0.0006243762
C        0.3456381491   -1.8390236102   -1.7896429096
C        4.4881552250    1.5764327440    0.6312877218
C        5.9624140679   -0.0863572493   -0.3225431411
C        2.1610614452   -2.5003302851    0.2271700245
C        1.4632335734   -1.0305200498   -1.5601763618
C        3.3870908523    0.7635968732    0.3448212900
C        4.8604892160   -0.8987042555   -0.6075325123
C        2.3879260181   -1.3580842676   -0.5564811886
C        3.5606148279   -0.4781064876   -0.2863305444
H       -0.7366671085   -3.6093851967   -1.1877113200
H        6.6357163118    1.7855480675    0.5204320865
H        0.8800604957   -4.1901935243    0.6148975531
H       -0.3578918718   -1.5773513480   -2.5761203576
H        4.3384430808    2.5353005907    1.1213441527
H        6.9628039368   -0.4217802514   -0.5846245949
H        2.8631995714   -2.7495529285    1.0188841044
H        1.6289485761   -0.1435036096   -2.1666131280
H        2.3847007253    1.0874020649    0.6136672743
H        5.0031993456   -1.8622832188   -1.0904072834
22   
torsion grid (-90,)
C        0.1431161884   -2.9920816706   -1.0309527421
C        5.7814288312    1.1619250279    0.2734348238
C        0.9353658538   -3.2163924025    0.0998680431
C        0.4642232907   -1.9475116537   -1.9041540005
C        4.5242900326    1.5017033384    0.7842041927
C        5.9251274955    0.0018556922   -0.4948788757
C        2.0421530822   -2.4003182318    0.3551829290
C        1.5713683434   -1.1323882028   -1.6473156080
C        3.4178404192    0.6855611631    0.5276401363
C        4.8176284285   -0.8131726127   -0.7504977052
C        2.3713255226   -1.3504140768   -0.5154379078
C        3.5531525455   -0.4797458098   -0.2420250025
H       -0.7172561475   -3.6259543702   -1.2300167679
H        6.6418146029    1.7957917318    0.4724642256
H        0.6922714371   -4.0262749246    0.7832465672
H       -0.1467158370   -1.7668606083   -2.7851347459
H        4.4045344040    2.4017062001    1.3822542780
H        6.8989237065   -0.2689374367   -0.8953801918
H        2.6579327473   -2.5746396616    1.2339986888
H        1.8209021007   -0.3205523870   -2.3259509898
H        2.4408183969    0.9496182524    0.9246199951
H        4.9293494431   -1.7147305357   -1.3476607149
22   
torsion grid (-75,)
C        0.1517257428   -2.9973125344   -1.0444774003
C        5.7811895002    1.1650444323    0.2568081023
C        0.8231824494   -3.1057311499    0.1779190675
C        0.5876755661   -2.0649752042   -1.9919560729
C        4.5750206220    1.4062827229    0.9230121324
C        5.8700618388    0.1023976266   -0.6486809353
C        1.9217303887   -2.2848782232    0.4513354178
C        1.6869203153   -1.2453253513   -1.7180401423
C        3.4660040969    0.5880053652    0.6866966769
C        4.7603314326   -0.7147462388   -0.8852146659
C        2.3589681234   -1.3395113435   -0.4894290649
C        3.5499564792   -0.4866900171   -0.2121573517
H       -0.7018612818   -3.6356151140   -1.2579996906
H        6.6434599683    1.8012417332    0.4394930668
H        0.4962916625   -3.8340368986    0.9159497175
H        0.0716044236   -1.9751703019   -2.9446272862
H        4.4951737023    2.2356339180    1.6214212632
H        6.8037881799   -0.0910322971   -1.1709018895
H        2.4492958952   -2.3762555491    1.3975456843
H        2.0242999185   -0.5199284897   -2.4541942081
H        2.5259101929    0.7817368722    1.1972761928
H        4.8303735505   -1.5413588784   -1.5878998289
22   
torsion grid (-60,)
C        0.1509300402   -2.9982298526   -1.0407383188
C        5.7799777003    1.1663209559    0.2602447696
C        0.7276987348   -2.9899313908    0.2338118970
C        0.6834801420   -2.1816375697   -2.0441948596
C        4.6228529289    1.3026055511    1.0346538710
C        5.8202041749    0.2072748029   -0.7575821657
C        1.8264314998   -2.1689248757    0.5025309687
C        1.7831130269   -1.3621489413   -1.7747542812
C        3.5160339921    0.4836775859    0.7943341368
C        4.7123768222   -0.6101600041   -0.9980821747
C        2.3610900658   -1.3369700916   -0.4948839876
C        3.5508769036   -0.4898434371   -0.2175494293
H       -0.7031926916   -3.6368928759   -1.2507895346
H        6.6409459850    1.8032764090    0.4461318490
H        0.3283361975   -3.6304685217    1.0162213111
H        0.2401899165   -2.1803064615   -3.0368849143
H        4.5783433098    2.0536649673    1.8194274425
H        6.7161787386    0.0933204170   -1.3627156954
H        2.2835500255   -2.1771731927    1.4889228568
H        2.1889642558   -0.7220133183   -2.5541119356
H        2.6118199594    0.6031613445    1.3860520453
H        4.7497911486   -1.3606747435   -1.7837202101
22   
torsion grid (-45,)
C        0.1447016192   -2.9963834210   -1.0338850400
C        5.7818191470    1.1657617849    0.2695676444
C        0.6429758493   -2.8760865763    0.2678545549
C        0.7606761272   -2.2928195115   -2.0744673468
C        4.6731359772    1.1973676982    1.1222646564
C        5.7742628881    0.3106835971   -0.8376891018
C        1.7463037299   -2.0591348287    0.5257656478
C        1.8639627585   -1.4762353516   -1.8150888826
C        3.5683053497    0.3807608154    0.8697091915
C        4.6686191904   -0.5052918820   -1.0888577573
C        2.3707215303   -1.3434395159   -0.5106489387
C        3.5507533830   -0.4861675129   -0.2368067754
H       -0.7134817011   -3.6322475414   -1.2353677814
H        6.6416774084    1.8012076648    0.4651449798
H        0.1784972677   -3.4274249192    1.0816116068
H        0.3766404987   -2.3738450729   -3.0883047781
H        4.6642972519    1.8665106356    1.9790533778
H        6.6337808197    0.2732873845   -1.5023303499
H        2.1429314953   -1.9907873427    1.5354708242
H        2.3226965870   -0.9156199766   -2.6254512203
H        2.7006830956    0.4297130676    1.5226347472
H        4.6802299628   -1.1829703897   -1.9385738083
22   
torsion grid (-30,)
C        0.1379783909   -3.0002231784   -1.0307621007
C        5.7859706058    1.1701609673    0.2751877657
C        0.5622365147   -2.7725874410    0.2824869715
C        0.8324525811   -2.4024044388   -2.0875135072
C        4.7304459644    1.0997039269    1.1902508468
C        5.7239576778    0.4148993919   -0.9004572397
C        1.6683533814   -1.9586621319    0.5346893377
C        1.9376893521   -1.5881100340   -1.8327636819
C        3.6262840052    0.2852954314    0.9311480098
C        4.6192247682   -0.3995261007   -1.1569559798
C        2.3814229593   -1.3559151914   -0.5178289792
C        3.5460813092   -0.4749668528   -0.2500134299
H       -0.7231188965   -3.6334303106   -1.2278106598
H        6.6458969987    1.8036604699    0.4763654046
H        0.0358306525   -3.2366944978    1.1127758211
H        0.5056369479   -2.5602676160   -3.1122807074
H        4.7625969143    1.6868692973    2.1046252355
H        6.5432877066    0.4501620044   -1.6141317307
H        2.0013911650   -1.8188887401    1.5591449002
H        2.4429187330   -1.1039079276   -2.6636750026
H        2.8024798626    0.2676903195    1.6389617255
H        4.6047048335   -1.0059027418   -2.0581897394
22   
torsion grid (-15,)
C        0.1304887183   -3.0076831854   -1.0329811260
C        5.7938112499    1.1775528956    0.2762639693
C        0.4725349501   -2.6647548840    0.2786178977
C        0.9098079862   -2.5209898291   -2.0868814473
C        4.8049410767    0.9956614694    1.2478285235
C        5.6620765520    0.5296341025   -0.9557107596
C        1.5786362008   -1.8515727620    0.5308538084
C        2.0142972944   -1.7069195996   -1.8308043451
C        3.7008138793    0.1819878952    0.9886247196
C        4.5572788764   -0.2843598302   -1.2107001698
C        2.3849023471   -1.3643980767   -0.5158180687
C        3.5423128319   -0.4664705846   -0.2512556046
H       -0.7309948950   -3.6400764801   -1.2306144735
H        6.6543459743    1.8101794199    0.4772560310
H       -0.1209637455   -3.0349827868    1.1108032866
H        0.6502746266   -2.7645412803   -3.1140997753
H        4.8897976165    1.4925162928    2.2110403489
H        6.4285029305    0.6469865628   -1.7177285839
H        1.8319316725   -1.6279106691    1.5620063889
H        2.5752845857   -1.3151461726   -2.6730414181
H        2.9383813229    0.0850807945    1.7546293068
H        4.5045747789   -0.8026668575   -2.1626115482
22   
torsion grid (0,)
C        0.1222681303   -3.0110527266   -1.0361070604
C        5.8025901834    1.1808007419    0.2774780023
C        0.3576198906   -2.5145135997    0.2490286311
C        1.0119635513   -2.6773304841   -2.0610890643
C        4.9127776184    0.8471730793    1.3023881969
C        5.5673296743    0.6841403276   -1.0076270763
C        1.4623159642   -1.7000307760    0.5018096102
C        2.1152465418   -1.8625032666   -1.8032969252
C        3.8095115140    0.0323334737    1.0445515539
C        4.4626232342   -0.1303328016   -1.2604034939
C        2.3721372540   -1.3508026622   -0.5158437867
C        3.5526642896   -0.4795007690   -0.2428493124
H       -0.7374095653   -3.6454575191   -1.2349011053
H        6.6622628835    1.8152062488    0.4762926586
H       -0.3212674906   -2.7611996321    1.0614919664
H        0.8485048172   -3.0522713926   -3.0683324872
H        5.0761343959    1.2221937665    2.3096186866
H        6.2462904260    0.9307306424   -1.8200586557
H        1.6046312852   -1.3381782191    1.5137409716
H        2.7780856451   -1.6301793682   -2.6290469954
H        3.1466010352   -0.1999016498    1.8702691485
H        4.3204050807   -0.4922602688   -2.2723185461
22   
torsion grid (15,)
C        0.1280807874   -3.0037140017   -1.0349315515
C        5.7967175070    1.1734847029    0.2763872411
C        0.2632059765   -2.3565935836    0.1970721604
C        1.1162067733   -2.8244442676   -2.0077672741
C        5.0144646447    0.6875104403    1.3284165717
C        5.4561162306    0.8329069538   -1.0362193942
C        1.3672683128   -1.5406248938    0.4492693142
C        2.2194849007   -2.0088731275   -1.7513455558
C        3.9120172303   -0.1288962442    1.0706296450
C        4.3521424257    0.0174729447   -1.2900758201
C        2.3651427642   -1.3354002610   -0.5229362642
C        3.5618233840   -0.4954817515   -0.2431554520
H       -0.7307097531   -3.6398891249   -1.2321368053
H        6.6548457611    1.8098541823    0.4758375345
H       -0.4959318696   -2.4829949742    0.9649136328
H        1.0357322019   -3.3314362055   -2.9660649641
H        5.2650163854    0.9405935267    2.3555585817
H        6.0437085677    1.2136043631   -1.8678780560
H        1.4263157898   -1.0312996495    1.4055565753
H        2.9868763502   -1.9210278742   -2.5135869892
H        3.3436380530   -0.5113671116    1.9120833664
H        4.0930460765   -0.1969751411   -2.3218209204
22   
torsion grid (30,)
C        0.1368130739   -2.9987668245   -1.0311061876
C        5.7872021387    1.1687963093    0.2757319292
C        0.2028114524   -2.2418235081    0.1432343113
C        1.1901681046   -2.9307221125   -1.9488801007
C        5.0898563896    0.5689942611    1.3294555001
C        5.3662621413    0.9431725829   -1.0389511551
C        1.3076767357   -1.4260514288    0.3951589123
C        2.2944987390   -2.1150758027   -1.6946104879
C        3.9868646000   -0.2472332969    1.0708203817
C        4.2624615520    0.1273504805   -1.2950171817
C        2.3716295243   -1.3418692830   -0.5215243665
C        3.5555094638   -0.4892757781   -0.2462621032
H       -0.7228336224   -3.6341372279   -1.2275435629
H        6.6456479467    1.8044728998    0.4763893393
H       -0.6120962265   -2.2799687129    0.8618043000
H        1.1579689361   -3.5237046539   -2.8594934258
H        5.4103661514    0.7301907679    2.3556942204
H        5.8909364193    1.4134737384   -1.8668519390
H        1.3262728061   -0.8219013908    1.2977362847
H        3.1188204593   -2.1020878149   -2.4020117470
H        3.4775529450   -0.7291317837    1.9004855694
H        3.9290121109   -0.0078121850   -2.3200117270
22   
torsion grid (45,)
C        0.1435661848   -2.9952487222   -1.0343078579
C        5.7829370551    1.1645843021    0.2699505623
C        0.1463828310   -2.1432491498    0.0753532896
C        1.2556942824   -3.0241149157   -1.8825843775
C        5.1697365363    0.4645434111    1.3145482817
C        5.2792527764    1.0419191672   -1.0294676486
C        1.2514481592   -1.3288644938    0.3340201957
C        2.3599684536   -2.2090785144   -1.6225289581
C        4.0630758605   -0.3494255180    1.0614317619
C        4.1725120467    0.2274926903   -1.2808239980
C        2.3768039884   -1.3524016664   -0.5081481478
C        3.5446716869   -0.4771132485   -0.2390179054
H       -0.7161583112   -3.6288391427   -1.2363869185
H        6.6443420062    1.7977471898    0.4661292070
H       -0.7174187108   -2.1050021419    0.7343662407
H        1.2665452887   -3.6879754369   -2.7434514306
H        5.5602483784    0.5441136769    2.3260243602
H        5.7439242854    1.5873556178   -1.8470868686
H        1.2353480325   -0.6513625779    1.1838491678
H        3.2288948967   -2.2540854966   -2.2739428555
H        3.6081396194   -0.9096243300    1.8742549060
H        3.7739172344    0.1554121500   -2.2894464619
22   
torsion grid (60,)
C        0.1475448513   -2.9922050113   -1.0430950254
C        5.7842703382    1.1604610961    0.2609204284
C        0.0878115235   -2.0463309681   -0.0140281492
C        1.3175867273   -3.1166419108   -1.8000039613
C        5.2627868983    0.3591044761    1.2822359221
C        5.1868473755    1.1420587099   -1.0040376408
C        1.1916742276   -1.2331484227    0.2573401530
C        2.4203118909   -2.3019851413   -1.5287518823
C        4.1505202832   -0.4518478466    1.0398884179
C        4.0755814505    0.3293776288   -1.2448229505
C        2.3748698140   -1.3585157482   -0.4891939832
C        3.5359237473   -0.4690017344   -0.2229896462
H       -0.7107840774   -3.6244936400   -1.2552275375
H        6.6496938875    1.7909671597    0.4480720719
H       -0.8218846159   -1.9345146486    0.5706916817
H        1.3727875729   -3.8506137980   -2.6001232274
H        5.7283543678    0.3576305006    2.2646832122
H        5.5844444295    1.7631658824   -1.8028531149
H        1.1371926133   -0.4867753840    1.0459966364
H        3.3315218105   -2.4068971428   -2.1123585730
H        3.7578486837   -1.0867854835    1.8302221549
H        3.6079047282    0.3240408819   -2.2261998949
22   
torsion grid (75,)
C        0.1480912162   -2.9920774796   -1.0460420609
C        5.7850034974    1.1597771240    0.2580930716
C        0.0356966912   -1.9436913382   -0.1267342907
C        1.3692048262   -3.2192148168   -1.6897038933
C        5.3625294470    0.2443294687    1.2278044367
C        5.0886577503    1.2564426289   -0.9513584464
C        1.1387436899   -1.1295616874    0.1486902659
C        2.4710997902   -2.4036984041   -1.4141161702
C        4.2488925381   -0.5671932382    0.9898487541
C        3.9758689432    0.4436039218   -1.1883857829
C        2.3705351382   -1.3569638672   -0.4844607259
C        3.5379713033   -0.4693124673   -0.2163494618
H       -0.7092194062   -3.6248229681   -1.2611551690
H        6.6510787337    1.7903904994    0.4421090491
H       -0.9123810152   -1.7550887807    0.3708203590
H        1.4643415805   -4.0315118952   -2.4060261383
H        5.9038531640    0.1568475273    2.1665801444
H        5.4112601380    1.9649336386   -1.7102804676
H        1.0482981868   -0.3087898095    0.8558942796
H        3.4203371302   -2.5814273383   -1.9134079076
H        3.9267344899   -1.2854284377    1.7397392284
H        3.4340553562    0.5200540794   -2.1278141089
22   
torsion grid (90,)
C        0.1465534113   -2.9967015994   -1.0306204029
C        5.7785589709    1.1664245211    0.2713046474
C        0.0004887004   -1.8367639336   -0.2625877335
C        1.4044614007   -3.3348438950   -1.5407162933
C        5.4593213247    0.1222176097    1.1455909414
C        4.9853434777    1.3888747082   -0.8592660909
C        1.1065491199   -1.0198388829   -0.0066024964
C        2.5093486502   -2.5168106309   -1.2837490779
C        4.3530932990   -0.6946089980    0.8899710853
C        3.8795958443    0.5710133897   -1.1131065145
C        2.3716210416   -1.3513205256   -0.5146191384
C        3.5523204990   -0.4789077466   -0.2416554304
H       -0.7127429221   -3.6319495564   -1.2299465990
H        6.6382247758    1.8015722520    0.4693562620
H       -0.9739525300   -1.5674641004    0.1373535808
H        1.5259174133   -4.2348671883   -2.1384042626
H        6.0709110651   -0.0568495395    2.0264461819
H        5.2269672739    2.1985169152   -1.5434616170
H        0.9930715809   -0.1184277008    0.5904659016
H        3.4870866916   -2.7794188648   -1.6799008008
H        4.1049407260   -1.5059997229    1.5696478825
H        3.2629726550    0.7438121121   -1.9916126527
22   
torsion grid (105,)
C        0.1469118124   -3.0022731104   -1.0059401387
C        5.7654144154    1.1749996950    0.2911612973
C       -0.0150762429   -1.7470362065   -0.4099654918
C        1.4261632968   -3.4338078706   -1.3721100249
C        5.5463767386    0.0144746372    1.0409985047
C        4.8822637417    1.5082443974   -0.7412076923
C        1.0953376910   -0.9277529199   -0.1843554394
C        2.5358312073   -2.6137990345   -1.1449117265
C        4.4522666594   -0.8089026024    0.7579997712
C        3.7878597521    0.6845470797   -1.0225787138
C        2.3813118586   -1.3482904675   -0.5581079217
C        3.5670472309   -0.4875621224   -0.2828786209
H       -0.7159901175   -3.6398080973   -1.1807671656
H        6.6154573338    1.8157103854    0.5114574527
H       -1.0049377766   -1.4083177691   -0.1142603667
H        1.5603988068   -4.4083032940   -1.8350568343
H        6.2232035091   -0.2464166653    1.8508353800
H        5.0453665723    2.4088864945   -1.3279089744
H        0.9703480553    0.0434954298    0.2878411972
H        3.5297082117   -2.9490677974   -1.4309522924
H        4.2765988440   -1.7054877572    1.3472429771
H        3.1024578608    0.9431200991   -1.8259443445
22   
torsion grid (120,)
C        0.1444646219   -3.0002004238   -1.0014866468
C        5.7650934006    1.1736306236    0.2964600122
C       -0.0263129082   -1.6844788980   -0.5576471618
C        1.4354661105   -3.4925891768   -1.2209306576
C        5.6307381167   -0.0662303909    0.9304803046
C        4.7975782056    1.5857437123   -0.6262381488
C        1.0856916160   -0.8667997382   -0.3379712021
C        2.5465004464   -2.6741410007   -0.9994899395
C        4.5384525822   -0.8888766886    0.6414308371
C        3.7050754703    0.7627861420   -0.9133638137
C        2.3855059848   -1.3478352269   -0.5661706562
C        3.5676899378   -0.4892499966   -0.2918079624
H       -0.7200886479   -3.6366922860   -1.1716226977
H        6.6140438062    1.8139951686    0.5217064775
H       -1.0253717535   -1.2978289753   -0.3723179411
H        1.5772262187   -4.5132267840   -1.5675557063
H        6.3712409873   -0.3885656289    1.6582964955
H        4.8952422838    2.5469114690   -1.1247972509
H        0.9510355160    0.1492565014    0.0244112834
H        3.5482603498   -3.0566429149   -1.1789463780
H        4.4266935198   -1.8437331710    1.1489731881
H        2.9590613037    1.0816784524   -1.6371194639
22   
torsion grid (135,)
C        0.1430068762   -2.9986484106   -1.0204039913
C        5.7761915802    1.1697399592    0.2814777565
C       -0.0328626827   -1.6479448209   -0.7012221891
C        1.4370625958   -3.5252432314   -1.0937965788
C        5.7099076948   -0.1207695692    0.8175779230
C        4.7310687107    1.6345137053   -0.5241118790
C        1.0748718576   -0.8321028796   -0.4590385605
C        2.5438348221   -2.7082375712   -0.8513554472
C        4.6095707449   -0.9385041340    0.5494694742
C        3.6313198090    0.8157984535   -0.7914409662
C        2.3801845524   -1.3484599418   -0.5344936109
C        3.5556214906   -0.4844393788   -0.2624363465
H       -0.7186317331   -3.6339365163   -1.2085309666
H        6.6319986355    1.8064798520    0.4901884924
H       -1.0345973390   -1.2315256215   -0.6302338230
H        1.5850870086   -4.5718344830   -1.3480513006
H        6.5112568746   -0.4873454296    1.4542695125
H        4.7760900812    2.6331417633   -0.9514562225
H        0.9282393608    0.2097582580   -0.1862539473
H        3.5464576071   -3.1202297323   -0.9319468398
H        4.5538679536   -1.9300932355    0.9911077460
H        2.8340613808    1.1767188224   -1.4361180780
22   
torsion grid (150,)
C        0.1418034955   -2.9996939748   -1.0474358872
C        5.7914127753    1.1673444163    0.2591964008
C       -0.0303719567   -1.6269567161   -0.8414164991
C        1.4273410971   -3.5462533764   -0.9767123002
C        5.7801377976   -0.1597844397    0.7008946655
C        4.6790858447    1.6708282268   -0.4231285738
C        1.0697867504   -0.8124600544   -0.5663463483
C        2.5261885401   -2.7295597456   -0.7024343754
C        4.6691127751   -0.9715957334    0.4642456854
C        3.5695030683    0.8567985746   -0.6594834107
C        2.3682866484   -1.3482833765   -0.4858813021
C        3.5402687103   -0.4779475228   -0.2152421691
H       -0.7139029156   -3.6345207702   -1.2619818126
H        6.6559381627    1.7999803441    0.4425984375
H       -1.0248849581   -1.1901837947   -0.8866147153
H        1.5770656558   -4.6093680489   -1.1477466506
H        6.6351721536   -0.5618723190    1.2385841575
H        4.6798384775    2.6965277315   -0.7834375843
H        0.9127069883    0.2460124057   -0.3789241100
H        3.5208341957   -3.1658833479   -0.6868592825
H        4.6662434969   -1.9902980760    0.8416084952
H        2.7297997169    1.2545921333   -1.2221556446
22   
torsion grid (165,)
C        0.1378939501   -3.0063535430   -1.0640900995
C        5.8036993335    1.1719192909    0.2463325632
C       -0.0129648893   -1.6183173795   -0.9892461535
C        1.4006793818   -3.5644724610   -0.8436507223
C        5.8421245154   -0.1881815547    0.5682873650
C        4.6330478136    1.7071407586   -0.2994031212
C        1.0817665922   -0.8037716631   -0.6958080607
C        2.4934860605   -2.7464758794   -0.5518653399
C        4.7261366944   -0.9974576027    0.3499502131
C        3.5194247269    0.8943183184   -0.5176888848
C        2.3591153088   -1.3476096493   -0.4592855646
C        3.5341716628   -0.4748210803   -0.1879935962
H       -0.7133321292   -3.6418662844   -1.2935873395
H        6.6722454253    1.8031128668    0.4147202601
H       -0.9877756336   -1.1665473220   -1.1550276898
H        1.5400457146   -4.6405109692   -0.9112983027
H        6.7427473135   -0.6215179357    0.9959931788
H        4.5891455841    2.7594483624   -0.5688089909
H        0.9237707768    0.2669882654   -0.6171321308
H        3.4663732457   -3.2092601203   -0.4230144356
H        4.7803419936   -2.0424185652    0.6377041489
H        2.6401221029    1.3338543544   -0.9769406614
22   
torsion grid (180,)
C        0.1237745179   -3.0134452161   -1.0352129679
C        5.8009200260    1.1832019364    0.2771220089
C        0.0257770475   -1.6248639948   -1.1607084759
C        1.3461913485   -3.5707918794   -0.6497541279
C        5.8988452849   -0.2053804490    0.4026691011
C        4.5785100006    1.7405732699   -0.1083197916
C        1.1305347861   -0.8113684147   -0.9050637273
C        2.4480966261   -2.7530938173   -0.3952163598
C        4.7940749201   -1.0188859459    0.1471116880
C        3.4765749515    0.9228922473   -0.3627832791
C        2.3723464748   -1.3512253954   -0.5153519853
C        3.5522877694   -0.4789771005   -0.2425967626
H       -0.7353828800   -3.6485924125   -1.2338884083
H        6.6601329029    1.8183157418    0.4756661181
H       -0.9151936344   -1.1695881595   -1.4592664429
H        1.4453122727   -4.6483841047   -0.5457954550
H        6.8398108337   -0.6606706939    0.7012184532
H        4.4794014221    2.8181684217   -0.2122601814
H        1.0076075021    0.2600374010   -1.0152679296
H        3.3755795757   -3.2297300548   -0.0989641925
H        4.9169532711   -2.0902904810    0.2574096339
H        2.5490957855    1.3995496467   -0.6590068919
