50
1 1 C15F3H27N3O2
C                    -2.117070180755    -5.217197072730    -0.697475270222
C                    -3.586386666670    -5.079367814569    -0.294465945358
C                    -3.728488745052    -4.367766333336     1.052039654433
N                    -4.256086779798    -6.473767396869    -0.229823228959
C                    -5.684226113664    -6.449809814132     0.297216132239
C                    -6.693488241284    -5.611912190414    -0.503903823507
N                    -7.914645423223    -5.483047300037     0.274123823035
C                    -7.985340297047    -4.588580479036     1.313187316706
O                    -6.988337649616    -3.973778511519     1.690320495107
C                    -9.367471286725    -4.441443872173     1.934156474190
N                    -9.349485929195    -3.758326873043     3.200216946006
C                    -8.554271220695    -4.139371919889     4.353786720288
H                    -7.505150539507    -4.270921622595     4.077632269667
C                    -8.742736715881    -2.955595207558     5.336969502687
C                   -10.025323302026    -2.250017085926     4.870678965594
C                   -10.201195951254    -2.684610283816     3.426135233449
O                   -10.952712634475    -2.219913115179     2.584497856173
C                    -9.010990005694    -5.475658546814     4.939799680093
F                    -8.840968278381    -6.485560084550     4.032111218314
F                    -8.281712941979    -5.801488068724     6.028583373286
F                   -10.313127742401    -5.474074867592     5.290865573220
C                    -4.019656413524    -7.356283232118    -1.479035492153
C                    -4.482837383617    -6.707767262798    -2.780327381423
C                    -4.607934616923    -8.751428726739    -1.273441514927
H                    -1.972721268854    -5.574056969471    -1.718313879591
H                    -1.654908109630    -4.229515363272    -0.635622794128
H                    -1.569892054745    -5.872688719542    -0.010056203248
H                    -4.131057762727    -4.529731723916    -1.062174212950
H                    -4.759859060434    -4.123202682670     1.308721875981
H                    -3.174703280639    -3.427405433383     0.995975212834
H                    -3.279775649235    -4.957127587856     1.861174274208
H                    -3.738341627832    -6.963084974449     0.508411661911
H                    -6.016043085209    -7.484281245555     0.366750509856
H                    -5.628782296389    -6.050340176797     1.307030715576
H                    -6.296631188880    -4.615059040837    -0.709725188180
H                    -6.945837893213    -6.083556625019    -1.452699093809
H                    -8.758586536443    -5.936484461357    -0.052896792108
H                    -9.989006610906    -3.827984236736     1.269877516997
H                    -9.842897639727    -5.427317171432     2.007756118142
H                    -8.783884863728    -3.291085626756     6.373835090565
H                    -7.882925175938    -2.290162861008     5.236445380466
H                   -10.909379344589    -2.575631772472     5.427376820287
H                    -9.978074196033    -1.161835141306     4.930865015026
H                    -2.934221221425    -7.454845181117    -1.505031592507
H                    -4.114383653407    -7.322029263181    -3.606369811048
H                    -5.569580447775    -6.673154898012    -2.866916505527
H                    -4.085302264702    -5.701806661211    -2.925471863633
H                    -4.205718750951    -9.407429389110    -2.049668196793
H                    -5.696550883738    -8.767685960835    -1.367390298091
H                    -4.327544399069    -9.185147411663    -0.307448757877
