50
1 1 C15F3H27N3O2
C                    -3.536262710228    -7.991103735385    -1.932278889945
C                    -4.646001873882    -7.624443698956    -0.944416175422
C                    -6.014003085895    -7.684424581092    -1.629227716399
N                    -4.406210528514    -6.228124177068    -0.344875477573
C                    -5.484594921123    -5.827950591164     0.645334127296
C                    -6.542380836802    -4.886685898869     0.057341240374
N                    -6.053274718435    -3.544469243329    -0.271541374746
C                    -5.415883488154    -3.286652471133    -1.446445849045
O                    -4.946438642126    -4.202797915003    -2.142655502008
C                    -5.300760515005    -1.817257386526    -1.818464778417
N                    -4.463417024494    -1.575052596195    -2.960785060134
C                    -3.057781385438    -1.917662877800    -3.076498219334
H                    -2.886614418096    -2.964096635243    -2.810463510268
C                    -2.734747162766    -1.652701022612    -4.570281165959
C                    -3.847324764184    -0.713259139429    -5.059745648425
C                    -4.979243565107    -0.906504904029    -4.067412344282
O                    -6.140348801702    -0.546955633452    -4.162506690272
C                    -2.188256898337    -1.090919611169    -2.128388667445
F                    -2.522186721023    -1.343065905587    -0.824056877355
F                    -0.885223470991    -1.414679118834    -2.266592318483
F                    -2.318823664957     0.234657723162    -2.322130567432
C                    -2.986448964203    -6.026870892331     0.213427948403
C                    -2.710039905258    -6.948401502794     1.398090730931
C                    -2.724516733213    -4.553162219692     0.525001076418
H                    -2.572381412583    -8.170346380886    -1.453572580172
H                    -3.818161829271    -8.917421155892    -2.438033441954
H                    -3.417505363871    -7.221082074364    -2.701945197886
H                    -4.633745261832    -8.311588789722    -0.095095155631
H                    -6.847545893384    -7.538899414088    -0.939625264253
H                    -6.135582148017    -8.679700613244    -2.062808995169
H                    -6.086337303091    -6.954542239191    -2.440841388528
H                    -4.500968444800    -5.558652917208    -1.142643413197
H                    -5.962305917356    -6.737260060325     1.012149376692
H                    -5.006248324851    -5.343191425453     1.492902803213
H                    -7.005344516149    -5.321329463847    -0.830151691754
H                    -7.323809219522    -4.776017751151     0.812540621265
H                    -6.461363573011    -2.760846759599     0.225744055847
H                    -6.296545361629    -1.447355811593    -2.094672951109
H                    -4.973666582359    -1.250217599351    -0.938300945366
H                    -1.732555080809    -1.243584045509    -4.701874134194
H                    -2.777458727639    -2.604811556388    -5.102984167964
H                    -3.551166949324     0.339722900240    -5.027789335186
H                    -4.194607410679    -0.929159398468    -6.070959455683
H                    -2.336837412845    -6.299611324427    -0.616701200402
H                    -1.682358415418    -6.784481326305     1.731893815675
H                    -3.364261092839    -6.737092035977     2.248791188708
H                    -2.803109508113    -8.005957824357     1.140795970886
H                    -1.662593053921    -4.440312761177     0.758037644028
H                    -3.283700080347    -4.186496648070     1.389049505448
H                    -2.938720249028    -3.910506602225    -0.330035120750
