50
1 1 C15F3H27N3O2
C                    -2.214219840447    -5.945249080619    -0.711934942252
C                    -3.467831788806    -5.152739361975    -0.338291904519
C                    -3.142684445113    -4.081345728409     0.706066282317
N                    -4.574053252244    -6.075829494720     0.198453635661
C                    -5.840686394345    -5.331060530033     0.593669423779
C                    -6.401186598968    -4.353781555519    -0.459860626518
N                    -7.822226411999    -4.159195004036    -0.217437053161
C                    -8.680090124714    -5.181537889586    -0.529718924089
O                    -8.340682132540    -6.130090653847    -1.232657478044
C                   -10.102818775062    -5.047183346576     0.017617298905
N                   -10.500304336531    -6.285292953296     0.663688966938
C                   -11.804513548012    -6.912935114783     0.512146245407
H                   -12.101230830187    -6.952959639491    -0.539959127544
C                   -11.599912455404    -8.320549522059     1.122447343784
C                   -10.391888303519    -8.162321477279     2.062097204195
C                    -9.673722807622    -6.929529519431     1.545531059054
O                    -8.541913699843    -6.537504500557     1.836424089845
C                   -12.890227748795    -6.113325197958     1.240955220128
F                   -12.971899705340    -4.847224900265     0.758313557026
F                   -14.096149379078    -6.692010815555     1.082398916142
F                   -12.639117488103    -6.020290457298     2.568158255644
C                    -4.813836278945    -7.367245270331    -0.629311763212
C                    -5.244701936689    -7.096411696563    -2.067023605896
C                    -5.784109497535    -8.291145732138     0.106844985249
H                    -2.361860668523    -6.608623562832    -1.564905183963
H                    -1.430365561224    -5.235614656914    -0.986963256143
H                    -1.839089359659    -6.531324859051     0.134611998307
H                    -3.886542256604    -4.686697659881    -1.230973149316
H                    -3.984840336679    -3.426102334502     0.932746410315
H                    -2.338509819210    -3.451127865642     0.319828588840
H                    -2.785651988975    -4.530030994796     1.640104027905
H                    -4.208731219225    -6.436997989353     1.085855247677
H                    -6.592213968033    -6.077210282108     0.834803524568
H                    -5.614979058105    -4.801656445217     1.520126049643
H                    -5.904632448946    -3.382105112428    -0.417772035516
H                    -6.290846673414    -4.744000683077    -1.469308606467
H                    -8.091737730670    -3.533446799537     0.531812105713
H                   -10.193090655046    -4.199525334962     0.705963320307
H                   -10.771072297616    -4.860995038514    -0.825984056087
H                   -12.497586873483    -8.682245696331     1.624602236610
H                   -11.366382271291    -9.015204420626     0.313050532577
H                   -10.688068407324    -7.975100374055     3.098611921122
H                    -9.716575652227    -9.019716846996     2.059753097321
H                    -3.829780909785    -7.836776938464    -0.625749792031
H                    -5.184374443480    -8.043734118518    -2.610710321214
H                    -6.279205229872    -6.754081434371    -2.118664237142
H                    -4.589564394099    -6.390365210765    -2.583889958561
H                    -5.709587217241    -9.282038181988    -0.349503682625
H                    -6.819809890112    -7.960102507635     0.019661632180
H                    -5.531845318309    -8.401450763747     1.167507629956
