
  -OEChem-12102412493D

 43 44  0     1  0  0  0  0  0999 V2000
    3.4719    4.5486    1.2012 C   0  0  0  0  0  0  0  0  0  0  0  0
    3.9597    3.1018    1.1004 C   0  0  1  0  0  0  0  0  0  0  0  0
    5.4306    3.0789    0.6488 C   0  0  0  0  0  0  0  0  0  0  0  0
    5.7935    1.6287    0.4136 N   0  3  0  0  0  0  0  0  0  0  0  0
    3.8281    2.3144    2.4080 C   0  0  0  0  0  0  0  0  0  0  0  0
    4.2569    2.8597    3.6176 C   0  0  0  0  0  0  0  0  0  0  0  0
    4.1889    2.1094    4.8006 C   0  0  0  0  0  0  0  0  0  0  0  0
    3.6952    0.8041    4.7952 C   0  0  0  0  0  0  0  0  0  0  0  0
    3.2610    0.2306    3.5646 C   0  0  0  0  0  0  0  0  0  0  0  0
    3.3423    0.9881    2.3914 C   0  0  0  0  0  0  0  0  0  0  0  0
    2.8027   -1.0344    3.6449 O   0  0  0  0  0  0  0  0  0  0  0  0
    2.2671   -1.6830    2.4625 C   0  0  0  0  0  0  0  0  0  0  0  0
    1.9952   -3.1339    2.8683 C   0  0  0  0  0  0  0  0  0  0  0  0
    0.5862   -3.0864    3.4765 C   0  0  0  0  0  0  0  0  0  0  0  0
   -0.1692   -2.1456    2.5199 C   0  0  0  0  0  0  0  0  0  0  0  0
    0.8845   -1.0960    2.0727 C   0  0  0  0  0  0  0  0  0  0  0  0
    3.5798    0.0068    5.8802 O   0  0  0  0  0  0  0  0  0  0  0  0
    3.9639    0.5347    7.1536 C   0  0  0  0  0  0  0  0  0  0  0  0
    3.3096    2.4271    0.0052 O   0  0  0  0  0  0  0  0  0  0  0  0
    2.4290    4.5619    1.5303 H   0  0  0  0  0  0  0  0  0  0  0  0
    3.5416    5.0386    0.2262 H   0  0  0  0  0  0  0  0  0  0  0  0
    4.0506    5.1264    1.9253 H   0  0  0  0  0  0  0  0  0  0  0  0
    5.5699    3.6027   -0.2986 H   0  0  0  0  0  0  0  0  0  0  0  0
    6.0997    3.4728    1.4125 H   0  0  0  0  0  0  0  0  0  0  0  0
    5.1482    1.2513   -0.2951 H   0  0  0  0  0  0  0  0  0  0  0  0
    5.6249    1.0929    1.2811 H   0  0  0  0  0  0  0  0  0  0  0  0
    6.7626    1.4953    0.1061 H   0  0  0  0  0  0  0  0  0  0  0  0
    4.6357    3.8760    3.6727 H   0  0  0  0  0  0  0  0  0  0  0  0
    4.5178    2.5628    5.7283 H   0  0  0  0  0  0  0  0  0  0  0  0
    2.9767    0.5671    1.4637 H   0  0  0  0  0  0  0  0  0  0  0  0
    3.0155   -1.6091    1.6641 H   0  0  0  0  0  0  0  0  0  0  0  0
    1.9931   -3.7544    1.9642 H   0  0  0  0  0  0  0  0  0  0  0  0
    2.7689   -3.5131    3.5402 H   0  0  0  0  0  0  0  0  0  0  0  0
    0.1228   -4.0733    3.5548 H   0  0  0  0  0  0  0  0  0  0  0  0
    0.6328   -2.6569    4.4827 H   0  0  0  0  0  0  0  0  0  0  0  0
   -0.5245   -2.7103    1.6515 H   0  0  0  0  0  0  0  0  0  0  0  0
   -1.0434   -1.6811    2.9830 H   0  0  0  0  0  0  0  0  0  0  0  0
    0.7357   -0.1406    2.5830 H   0  0  0  0  0  0  0  0  0  0  0  0
    0.8279   -0.8992    0.9969 H   0  0  0  0  0  0  0  0  0  0  0  0
    3.7741   -0.2637    7.8700 H   0  0  0  0  0  0  0  0  0  0  0  0
    3.3612    1.4121    7.4139 H   0  0  0  0  0  0  0  0  0  0  0  0
    5.0286    0.7943    7.1685 H   0  0  0  0  0  0  0  0  0  0  0  0
    2.3463    2.4693    0.1259 H   0  0  0  0  0  0  0  0  0  0  0  0
  1  2  1  0  0  0  0
  1 20  1  0  0  0  0
  1 21  1  0  0  0  0
  1 22  1  0  0  0  0
  2  3  1  0  0  0  0
  2  5  1  0  0  0  0
  2 19  1  0  0  0  0
  3  4  1  0  0  0  0
  3 23  1  0  0  0  0
  3 24  1  0  0  0  0
  4 25  1  0  0  0  0
  4 26  1  0  0  0  0
  4 27  1  0  0  0  0
  5  6  2  0  0  0  0
  5 10  1  0  0  0  0
  6  7  1  0  0  0  0
  6 28  1  0  0  0  0
  7  8  2  0  0  0  0
  7 29  1  0  0  0  0
  8  9  1  0  0  0  0
  8 17  1  0  0  0  0
  9 10  2  0  0  0  0
  9 11  1  0  0  0  0
 10 30  1  0  0  0  0
 11 12  1  0  0  0  0
 12 13  1  0  0  0  0
 12 16  1  0  0  0  0
 12 31  1  0  0  0  0
 13 14  1  0  0  0  0
 13 32  1  0  0  0  0
 13 33  1  0  0  0  0
 14 15  1  0  0  0  0
 14 34  1  0  0  0  0
 14 35  1  0  0  0  0
 15 16  1  0  0  0  0
 15 36  1  0  0  0  0
 15 37  1  0  0  0  0
 16 38  1  0  0  0  0
 16 39  1  0  0  0  0
 17 18  1  0  0  0  0
 18 40  1  0  0  0  0
 18 41  1  0  0  0  0
 18 42  1  0  0  0  0
 19 43  1  0  0  0  0
M  CHG  1   4   1
M  END
$$$$
