
  -OEChem-12122420533D

 43 44  0     1  0  0  0  0  0999 V2000
    2.7003    3.5556    0.5493 C   0  0  0  0  0  0  0  0  0  0  0  0
    4.0498    3.1807    1.1774 C   0  0  1  0  0  0  0  0  0  0  0  0
    4.9544    4.4277    1.3219 C   0  0  0  0  0  0  0  0  0  0  0  0
    5.3925    4.8231   -0.0740 N   0  3  0  0  0  0  0  0  0  0  0  0
    3.8755    2.4671    2.5053 C   0  0  0  0  0  0  0  0  0  0  0  0
    4.1860    3.0574    3.7324 C   0  0  0  0  0  0  0  0  0  0  0  0
    3.9657    2.3507    4.9176 C   0  0  0  0  0  0  0  0  0  0  0  0
    3.4565    1.0523    4.9087 C   0  0  0  0  0  0  0  0  0  0  0  0
    3.1635    0.4328    3.6625 C   0  0  0  0  0  0  0  0  0  0  0  0
    3.3549    1.1596    2.4823 C   0  0  0  0  0  0  0  0  0  0  0  0
    2.7480   -0.8553    3.7151 O   0  0  0  0  0  0  0  0  0  0  0  0
    2.2414   -1.5128    2.5234 C   0  0  0  0  0  0  0  0  0  0  0  0
    1.9823   -2.9656    2.9208 C   0  0  0  0  0  0  0  0  0  0  0  0
    0.6032   -2.9571    3.6280 C   0  0  0  0  0  0  0  0  0  0  0  0
   -0.0810   -1.6221    3.2143 C   0  0  0  0  0  0  0  0  0  0  0  0
    0.8491   -0.9847    2.1591 C   0  0  0  0  0  0  0  0  0  0  0  0
    3.3356    0.4294    6.1100 O   0  0  0  0  0  0  0  0  0  0  0  0
    2.1404   -0.3245    6.4029 C   0  0  0  0  0  0  0  0  0  0  0  0
    4.7372    2.3367    0.2110 O   0  0  0  0  0  0  0  0  0  0  0  0
    2.0901    2.6588    0.4361 H   0  0  0  0  0  0  0  0  0  0  0  0
    2.8107    3.9933   -0.4510 H   0  0  0  0  0  0  0  0  0  0  0  0
    2.1619    4.2575    1.1913 H   0  0  0  0  0  0  0  0  0  0  0  0
    4.4566    5.2824    1.7799 H   0  0  0  0  0  0  0  0  0  0  0  0
    5.8658    4.1871    1.8703 H   0  0  0  0  0  0  0  0  0  0  0  0
    4.6474    5.2968   -0.5958 H   0  0  0  0  0  0  0  0  0  0  0  0
    5.6035    3.9290   -0.5607 H   0  0  0  0  0  0  0  0  0  0  0  0
    6.2193    5.4293   -0.0761 H   0  0  0  0  0  0  0  0  0  0  0  0
    4.5731    4.0694    3.8050 H   0  0  0  0  0  0  0  0  0  0  0  0
    4.1884    2.7962    5.8822 H   0  0  0  0  0  0  0  0  0  0  0  0
    3.1063    0.7029    1.5314 H   0  0  0  0  0  0  0  0  0  0  0  0
    2.9856   -1.4231    1.7246 H   0  0  0  0  0  0  0  0  0  0  0  0
    1.9466   -3.5663    2.0063 H   0  0  0  0  0  0  0  0  0  0  0  0
    2.7913   -3.3583    3.5414 H   0  0  0  0  0  0  0  0  0  0  0  0
    0.0088   -3.8258    3.3347 H   0  0  0  0  0  0  0  0  0  0  0  0
    0.7226   -3.0091    4.7132 H   0  0  0  0  0  0  0  0  0  0  0  0
   -1.0895   -1.7731    2.8216 H   0  0  0  0  0  0  0  0  0  0  0  0
   -0.1715   -0.9578    4.0784 H   0  0  0  0  0  0  0  0  0  0  0  0
    0.7910    0.1072    2.1415 H   0  0  0  0  0  0  0  0  0  0  0  0
    0.6024   -1.3438    1.1531 H   0  0  0  0  0  0  0  0  0  0  0  0
    2.0800   -0.3546    7.4916 H   0  0  0  0  0  0  0  0  0  0  0  0
    2.2053   -1.3345    5.9982 H   0  0  0  0  0  0  0  0  0  0  0  0
    1.2566    0.1812    6.0008 H   0  0  0  0  0  0  0  0  0  0  0  0
    5.1911    1.6244    0.6950 H   0  0  0  0  0  0  0  0  0  0  0  0
  1  2  1  0  0  0  0
  1 20  1  0  0  0  0
  1 21  1  0  0  0  0
  1 22  1  0  0  0  0
  2  3  1  0  0  0  0
  2  5  1  0  0  0  0
  2 19  1  0  0  0  0
  3  4  1  0  0  0  0
  3 23  1  0  0  0  0
  3 24  1  0  0  0  0
  4 25  1  0  0  0  0
  4 26  1  0  0  0  0
  4 27  1  0  0  0  0
  5  6  2  0  0  0  0
  5 10  1  0  0  0  0
  6  7  1  0  0  0  0
  6 28  1  0  0  0  0
  7  8  2  0  0  0  0
  7 29  1  0  0  0  0
  8  9  1  0  0  0  0
  8 17  1  0  0  0  0
  9 10  2  0  0  0  0
  9 11  1  0  0  0  0
 10 30  1  0  0  0  0
 11 12  1  0  0  0  0
 12 13  1  0  0  0  0
 12 16  1  0  0  0  0
 12 31  1  0  0  0  0
 13 14  1  0  0  0  0
 13 32  1  0  0  0  0
 13 33  1  0  0  0  0
 14 15  1  0  0  0  0
 14 34  1  0  0  0  0
 14 35  1  0  0  0  0
 15 16  1  0  0  0  0
 15 36  1  0  0  0  0
 15 37  1  0  0  0  0
 16 38  1  0  0  0  0
 16 39  1  0  0  0  0
 17 18  1  0  0  0  0
 18 40  1  0  0  0  0
 18 41  1  0  0  0  0
 18 42  1  0  0  0  0
 19 43  1  0  0  0  0
M  CHG  1   4   1
M  END
$$$$
