
  -OEChem-12102412493D

 43 44  0     1  0  0  0  0  0999 V2000
    2.0809    3.4019   -5.4151 C   0  0  0  0  0  0  0  0  0  0  0  0
    0.6228    3.1234   -5.8064 C   0  0  1  0  0  0  0  0  0  0  0  0
    0.3934    1.6095   -6.0305 C   0  0  0  0  0  0  0  0  0  0  0  0
    1.1003    1.2410   -7.3191 N   0  3  0  0  0  0  0  0  0  0  0  0
   -0.3463    3.6859   -4.7836 C   0  0  0  0  0  0  0  0  0  0  0  0
   -0.5099    5.0735   -4.6982 C   0  0  0  0  0  0  0  0  0  0  0  0
   -1.3629    5.6257   -3.7396 C   0  0  0  0  0  0  0  0  0  0  0  0
   -2.0538    4.8130   -2.8318 C   0  0  0  0  0  0  0  0  0  0  0  0
   -1.9087    3.4035   -2.9210 C   0  0  0  0  0  0  0  0  0  0  0  0
   -1.0580    2.8713   -3.8925 C   0  0  0  0  0  0  0  0  0  0  0  0
   -2.4869    2.5123   -2.0737 O   0  0  0  0  0  0  0  0  0  0  0  0
   -3.8950    2.6322   -1.7289 C   0  0  0  0  0  0  0  0  0  0  0  0
   -4.8266    2.7985   -2.9314 C   0  0  0  0  0  0  0  0  0  0  0  0
   -6.2008    2.3650   -2.3748 C   0  0  0  0  0  0  0  0  0  0  0  0
   -5.8940    1.3875   -1.1961 C   0  0  0  0  0  0  0  0  0  0  0  0
   -4.3536    1.3228   -1.0907 C   0  0  0  0  0  0  0  0  0  0  0  0
   -2.8553    5.2835   -1.8428 O   0  0  0  0  0  0  0  0  0  0  0  0
   -3.0150    6.6995   -1.7033 C   0  0  0  0  0  0  0  0  0  0  0  0
    0.4180    3.7235   -7.1153 O   0  0  0  0  0  0  0  0  0  0  0  0
    2.2246    4.4761   -5.2926 H   0  0  0  0  0  0  0  0  0  0  0  0
    2.7916    3.0706   -6.1832 H   0  0  0  0  0  0  0  0  0  0  0  0
    2.3225    2.9132   -4.4677 H   0  0  0  0  0  0  0  0  0  0  0  0
    0.7871    0.9812   -5.2316 H   0  0  0  0  0  0  0  0  0  0  0  0
   -0.6637    1.3934   -6.1902 H   0  0  0  0  0  0  0  0  0  0  0  0
    2.1171    1.1796   -7.1996 H   0  0  0  0  0  0  0  0  0  0  0  0
    0.9038    2.0231   -7.9753 H   0  0  0  0  0  0  0  0  0  0  0  0
    0.7710    0.3552   -7.7165 H   0  0  0  0  0  0  0  0  0  0  0  0
    0.0377    5.7396   -5.3596 H   0  0  0  0  0  0  0  0  0  0  0  0
   -1.4623    6.7035   -3.6883 H   0  0  0  0  0  0  0  0  0  0  0  0
   -0.9783    1.7882   -3.8948 H   0  0  0  0  0  0  0  0  0  0  0  0
   -4.0140    3.4654   -1.0335 H   0  0  0  0  0  0  0  0  0  0  0  0
   -4.8300    3.8135   -3.3382 H   0  0  0  0  0  0  0  0  0  0  0  0
   -4.4954    2.1164   -3.7246 H   0  0  0  0  0  0  0  0  0  0  0  0
   -6.7536    3.2363   -2.0114 H   0  0  0  0  0  0  0  0  0  0  0  0
   -6.8179    1.9024   -3.1493 H   0  0  0  0  0  0  0  0  0  0  0  0
   -6.3286    1.7653   -0.2664 H   0  0  0  0  0  0  0  0  0  0  0  0
   -6.3218    0.3957   -1.3617 H   0  0  0  0  0  0  0  0  0  0  0  0
   -3.9541    0.4930   -1.6847 H   0  0  0  0  0  0  0  0  0  0  0  0
   -3.9919    1.2033   -0.0663 H   0  0  0  0  0  0  0  0  0  0  0  0
   -3.6850    6.8356   -0.8549 H   0  0  0  0  0  0  0  0  0  0  0  0
   -3.4674    7.1358   -2.6008 H   0  0  0  0  0  0  0  0  0  0  0  0
   -2.0554    7.1838   -1.4926 H   0  0  0  0  0  0  0  0  0  0  0  0
   -0.4525    4.1588   -7.1208 H   0  0  0  0  0  0  0  0  0  0  0  0
  1  2  1  0  0  0  0
  1 20  1  0  0  0  0
  1 21  1  0  0  0  0
  1 22  1  0  0  0  0
  2  3  1  0  0  0  0
  2  5  1  0  0  0  0
  2 19  1  0  0  0  0
  3  4  1  0  0  0  0
  3 23  1  0  0  0  0
  3 24  1  0  0  0  0
  4 25  1  0  0  0  0
  4 26  1  0  0  0  0
  4 27  1  0  0  0  0
  5  6  2  0  0  0  0
  5 10  1  0  0  0  0
  6  7  1  0  0  0  0
  6 28  1  0  0  0  0
  7  8  2  0  0  0  0
  7 29  1  0  0  0  0
  8  9  1  0  0  0  0
  8 17  1  0  0  0  0
  9 10  2  0  0  0  0
  9 11  1  0  0  0  0
 10 30  1  0  0  0  0
 11 12  1  0  0  0  0
 12 13  1  0  0  0  0
 12 16  1  0  0  0  0
 12 31  1  0  0  0  0
 13 14  1  0  0  0  0
 13 32  1  0  0  0  0
 13 33  1  0  0  0  0
 14 15  1  0  0  0  0
 14 34  1  0  0  0  0
 14 35  1  0  0  0  0
 15 16  1  0  0  0  0
 15 36  1  0  0  0  0
 15 37  1  0  0  0  0
 16 38  1  0  0  0  0
 16 39  1  0  0  0  0
 17 18  1  0  0  0  0
 18 40  1  0  0  0  0
 18 41  1  0  0  0  0
 18 42  1  0  0  0  0
 19 43  1  0  0  0  0
M  CHG  1   4   1
M  END
$$$$
