
  -OEChem-12122420533D

 50 50  0     1  0  0  0  0  0999 V2000
   -4.3597   -6.9622   -2.6337 C   0  0  0  0  0  0  0  0  0  0  0  0
   -5.0625   -7.0700   -1.2787 C   0  0  0  0  0  0  0  0  0  0  0  0
   -6.5821   -7.0976   -1.4649 C   0  0  0  0  0  0  0  0  0  0  0  0
   -4.6490   -5.9063   -0.3618 N   0  3  0  0  0  0  0  0  0  0  0  0
   -5.3361   -5.9542    0.9895 C   0  0  0  0  0  0  0  0  0  0  0  0
   -6.5418   -5.0130    1.1069 C   0  0  0  0  0  0  0  0  0  0  0  0
   -6.2236   -3.5870    0.9911 N   0  0  0  0  0  0  0  0  0  0  0  0
   -6.1133   -2.9914   -0.2281 C   0  0  0  0  0  0  0  0  0  0  0  0
   -6.0056   -3.6582   -1.2635 O   0  0  0  0  0  0  0  0  0  0  0  0
   -6.1267   -1.4610   -0.2327 C   0  0  0  0  0  0  0  0  0  0  0  0
   -5.6447   -0.9168   -1.4769 N   0  0  0  0  0  0  0  0  0  0  0  0
   -6.4580   -0.2558   -2.4863 C   0  0  1  0  0  0  0  0  0  0  0  0
   -7.0936    0.5148   -2.0392 H   0  0  0  0  0  0  0  0  0  0  0  0
   -5.4040    0.3459   -3.4493 C   0  0  0  0  0  0  0  0  0  0  0  0
   -4.1445   -0.5110   -3.2341 C   0  0  0  0  0  0  0  0  0  0  0  0
   -4.3396   -1.1298   -1.8624 C   0  0  0  0  0  0  0  0  0  0  0  0
   -3.5228   -1.7322   -1.1737 O   0  0  0  0  0  0  0  0  0  0  0  0
   -7.4092   -1.2252   -3.1979 C   0  0  0  0  0  0  0  0  0  0  0  0
   -8.2395   -1.8370   -2.3113 F   0  0  0  0  0  0  0  0  0  0  0  0
   -8.1834   -0.5544   -4.0769 F   0  0  0  0  0  0  0  0  0  0  0  0
   -6.7530   -2.1906   -3.8750 F   0  0  0  0  0  0  0  0  0  0  0  0
   -3.1232   -5.7222   -0.2414 C   0  0  0  0  0  0  0  0  0  0  0  0
   -2.4603   -6.9526    0.3722 C   0  0  0  0  0  0  0  0  0  0  0  0
   -2.7802   -4.4280    0.4946 C   0  0  0  0  0  0  0  0  0  0  0  0
   -3.2852   -7.1432   -2.5788 H   0  0  0  0  0  0  0  0  0  0  0  0
   -4.7788   -7.7193   -3.3005 H   0  0  0  0  0  0  0  0  0  0  0  0
   -4.5355   -5.9843   -3.0941 H   0  0  0  0  0  0  0  0  0  0  0  0
   -4.7436   -7.9767   -0.7595 H   0  0  0  0  0  0  0  0  0  0  0  0
   -7.1249   -7.2843   -0.5362 H   0  0  0  0  0  0  0  0  0  0  0  0
   -6.8266   -7.9198   -2.1416 H   0  0  0  0  0  0  0  0  0  0  0  0
   -6.9454   -6.1699   -1.9151 H   0  0  0  0  0  0  0  0  0  0  0  0
   -5.0146   -5.0533   -0.8371 H   0  0  0  0  0  0  0  0  0  0  0  0
   -5.6531   -6.9814    1.1756 H   0  0  0  0  0  0  0  0  0  0  0  0
   -4.6030   -5.6940    1.7487 H   0  0  0  0  0  0  0  0  0  0  0  0
   -7.3026   -5.2574    0.3646 H   0  0  0  0  0  0  0  0  0  0  0  0
   -6.9799   -5.1786    2.0941 H   0  0  0  0  0  0  0  0  0  0  0  0
   -6.3118   -3.0045    1.8152 H   0  0  0  0  0  0  0  0  0  0  0  0
   -7.1504   -1.1216   -0.0575 H   0  0  0  0  0  0  0  0  0  0  0  0
   -5.5026   -1.1006    0.5933 H   0  0  0  0  0  0  0  0  0  0  0  0
   -5.7543    0.3531   -4.4817 H   0  0  0  0  0  0  0  0  0  0  0  0
   -5.2176    1.3803   -3.1536 H   0  0  0  0  0  0  0  0  0  0  0  0
   -4.0634   -1.3238   -3.9621 H   0  0  0  0  0  0  0  0  0  0  0  0
   -3.2134    0.0571   -3.2636 H   0  0  0  0  0  0  0  0  0  0  0  0
   -2.7939   -5.6022   -1.2724 H   0  0  0  0  0  0  0  0  0  0  0  0
   -1.3846   -6.7694    0.4337 H   0  0  0  0  0  0  0  0  0  0  0  0
   -2.8136   -7.1464    1.3895 H   0  0  0  0  0  0  0  0  0  0  0  0
   -2.6024   -7.8566   -0.2243 H   0  0  0  0  0  0  0  0  0  0  0  0
   -1.7067   -4.2562    0.3763 H   0  0  0  0  0  0  0  0  0  0  0  0
   -2.9767   -4.4826    1.5689 H   0  0  0  0  0  0  0  0  0  0  0  0
   -3.2849   -3.5591    0.0690 H   0  0  0  0  0  0  0  0  0  0  0  0
  1  2  1  0  0  0  0
  1 25  1  0  0  0  0
  1 26  1  0  0  0  0
  1 27  1  0  0  0  0
  2  3  1  0  0  0  0
  2  4  1  0  0  0  0
  2 28  1  0  0  0  0
  3 29  1  0  0  0  0
  3 30  1  0  0  0  0
  3 31  1  0  0  0  0
  4  5  1  0  0  0  0
  4 22  1  0  0  0  0
  4 32  1  0  0  0  0
  5  6  1  0  0  0  0
  5 33  1  0  0  0  0
  5 34  1  0  0  0  0
  6  7  1  0  0  0  0
  6 35  1  0  0  0  0
  6 36  1  0  0  0  0
  7  8  1  0  0  0  0
  7 37  1  0  0  0  0
  8  9  2  0  0  0  0
  8 10  1  0  0  0  0
 10 11  1  0  0  0  0
 10 38  1  0  0  0  0
 10 39  1  0  0  0  0
 11 12  1  0  0  0  0
 11 16  1  0  0  0  0
 12 13  1  0  0  0  0
 12 14  1  0  0  0  0
 12 18  1  0  0  0  0
 14 15  1  0  0  0  0
 14 40  1  0  0  0  0
 14 41  1  0  0  0  0
 15 16  1  0  0  0  0
 15 42  1  0  0  0  0
 15 43  1  0  0  0  0
 16 17  2  0  0  0  0
 18 19  1  0  0  0  0
 18 20  1  0  0  0  0
 18 21  1  0  0  0  0
 22 23  1  0  0  0  0
 22 24  1  0  0  0  0
 22 44  1  0  0  0  0
 23 45  1  0  0  0  0
 23 46  1  0  0  0  0
 23 47  1  0  0  0  0
 24 48  1  0  0  0  0
 24 49  1  0  0  0  0
 24 50  1  0  0  0  0
M  CHG  1   4   1
M  END
$$$$
