43
1 1 C15H24NO3
C                     2.080944586109     3.401894408610    -5.415094992943
C                     0.622803285696     3.123387675328    -5.806444062015
C                     0.393362022140     1.609461328299    -6.030499793847
N                     1.100343680488     1.240970915525    -7.319108945826
C                    -0.346344219505     3.685886397063    -4.783567622959
C                    -0.509931808117     5.073498535497    -4.698230950185
C                    -1.362906807131     5.625684604125    -3.739567789638
C                    -2.053776204771     4.813001348434    -2.831782668350
C                    -1.908749522699     3.403470515306    -2.921036337296
C                    -1.058048800334     2.871331018237    -3.892538178366
O                    -2.486884806581     2.512260335529    -2.073749390034
C                    -3.894973880523     2.632203430428    -1.728901159796
C                    -4.826598948454     2.798523838325    -2.931423858395
C                    -6.200832608567     2.364966044441    -2.374784710622
C                    -5.894031235506     1.387523226078    -1.196104604551
C                    -4.353630015041     1.322831666623    -1.090703368193
O                    -2.855302536865     5.283529684801    -1.842782233408
C                    -3.015005652536     6.699477945214    -1.703349271959
O                     0.418041714806     3.723489449190    -7.115277784892
H                     2.224643557268     4.476053294734    -5.292585108108
H                     2.791634136254     3.070630316123    -6.183196238116
H                     2.322539949505     2.913177399538    -4.467702036958
H                     0.787097384093     0.981163939590    -5.231604536136
H                    -0.663677489084     1.393444851360    -6.190175503430
H                     2.117136999961     1.179616236432    -7.199600929846
H                     0.903770788260     2.023097536990    -7.975301932363
H                     0.771038649660     0.355199492115    -7.716548844594
H                     0.037682777965     5.739632348773    -5.359608021266
H                    -1.462343009800     6.703478276214    -3.688297936989
H                    -0.978255242967     1.788205758748    -3.894806729317
H                    -4.013989486525     3.465368860482    -1.033530326796
H                    -4.830005436787     3.813458025963    -3.338231749573
H                    -4.495447655380     2.116359003626    -3.724599837606
H                    -6.753601952192     3.236286463743    -2.011428301061
H                    -6.817898618446     1.902447419003    -3.149292497905
H                    -6.328619713136     1.765346806110    -0.266416219376
H                    -6.321839614249     0.395705229412    -1.361734430896
H                    -3.954082477528     0.493042561802    -1.684705226388
H                    -3.991883431348     1.203296921901    -0.066287383295
H                    -3.684950478373     6.835556849208    -0.854930372309
H                    -3.467369811809     7.135796827031    -2.600751343695
H                    -2.055383495880     7.183783193298    -1.492573205187
H                    -0.452538115698     4.158765365058    -7.120778417952
