
  -OEChem-12122420533D

 50 50  0     1  0  0  0  0  0999 V2000
   -2.2142   -5.9452   -0.7119 C   0  0  0  0  0  0  0  0  0  0  0  0
   -3.4678   -5.1527   -0.3383 C   0  0  0  0  0  0  0  0  0  0  0  0
   -3.1427   -4.0813    0.7061 C   0  0  0  0  0  0  0  0  0  0  0  0
   -4.5741   -6.0758    0.1985 N   0  3  0  0  0  0  0  0  0  0  0  0
   -5.8407   -5.3311    0.5937 C   0  0  0  0  0  0  0  0  0  0  0  0
   -6.4012   -4.3538   -0.4599 C   0  0  0  0  0  0  0  0  0  0  0  0
   -7.8222   -4.1592   -0.2174 N   0  0  0  0  0  0  0  0  0  0  0  0
   -8.6801   -5.1815   -0.5297 C   0  0  0  0  0  0  0  0  0  0  0  0
   -8.3407   -6.1301   -1.2327 O   0  0  0  0  0  0  0  0  0  0  0  0
  -10.1028   -5.0472    0.0176 C   0  0  0  0  0  0  0  0  0  0  0  0
  -10.5003   -6.2853    0.6637 N   0  0  0  0  0  0  0  0  0  0  0  0
  -11.8045   -6.9129    0.5121 C   0  0  1  0  0  0  0  0  0  0  0  0
  -12.1012   -6.9530   -0.5400 H   0  0  0  0  0  0  0  0  0  0  0  0
  -11.5999   -8.3205    1.1224 C   0  0  0  0  0  0  0  0  0  0  0  0
  -10.3919   -8.1623    2.0621 C   0  0  0  0  0  0  0  0  0  0  0  0
   -9.6737   -6.9295    1.5455 C   0  0  0  0  0  0  0  0  0  0  0  0
   -8.5419   -6.5375    1.8364 O   0  0  0  0  0  0  0  0  0  0  0  0
  -12.8902   -6.1133    1.2410 C   0  0  0  0  0  0  0  0  0  0  0  0
  -12.9719   -4.8472    0.7583 F   0  0  0  0  0  0  0  0  0  0  0  0
  -14.0961   -6.6920    1.0824 F   0  0  0  0  0  0  0  0  0  0  0  0
  -12.6391   -6.0203    2.5682 F   0  0  0  0  0  0  0  0  0  0  0  0
   -4.8138   -7.3672   -0.6293 C   0  0  0  0  0  0  0  0  0  0  0  0
   -5.2447   -7.0964   -2.0670 C   0  0  0  0  0  0  0  0  0  0  0  0
   -5.7841   -8.2911    0.1068 C   0  0  0  0  0  0  0  0  0  0  0  0
   -2.3619   -6.6086   -1.5649 H   0  0  0  0  0  0  0  0  0  0  0  0
   -1.4304   -5.2356   -0.9870 H   0  0  0  0  0  0  0  0  0  0  0  0
   -1.8391   -6.5313    0.1346 H   0  0  0  0  0  0  0  0  0  0  0  0
   -3.8865   -4.6867   -1.2310 H   0  0  0  0  0  0  0  0  0  0  0  0
   -3.9848   -3.4261    0.9327 H   0  0  0  0  0  0  0  0  0  0  0  0
   -2.3385   -3.4511    0.3198 H   0  0  0  0  0  0  0  0  0  0  0  0
   -2.7857   -4.5300    1.6401 H   0  0  0  0  0  0  0  0  0  0  0  0
   -4.2087   -6.4370    1.0859 H   0  0  0  0  0  0  0  0  0  0  0  0
   -6.5922   -6.0772    0.8348 H   0  0  0  0  0  0  0  0  0  0  0  0
   -5.6150   -4.8017    1.5201 H   0  0  0  0  0  0  0  0  0  0  0  0
   -5.9046   -3.3821   -0.4178 H   0  0  0  0  0  0  0  0  0  0  0  0
   -6.2908   -4.7440   -1.4693 H   0  0  0  0  0  0  0  0  0  0  0  0
   -8.0917   -3.5334    0.5318 H   0  0  0  0  0  0  0  0  0  0  0  0
  -10.1931   -4.1995    0.7060 H   0  0  0  0  0  0  0  0  0  0  0  0
  -10.7711   -4.8610   -0.8260 H   0  0  0  0  0  0  0  0  0  0  0  0
  -12.4976   -8.6822    1.6246 H   0  0  0  0  0  0  0  0  0  0  0  0
  -11.3664   -9.0152    0.3131 H   0  0  0  0  0  0  0  0  0  0  0  0
  -10.6881   -7.9751    3.0986 H   0  0  0  0  0  0  0  0  0  0  0  0
   -9.7166   -9.0197    2.0598 H   0  0  0  0  0  0  0  0  0  0  0  0
   -3.8298   -7.8368   -0.6257 H   0  0  0  0  0  0  0  0  0  0  0  0
   -5.1844   -8.0437   -2.6107 H   0  0  0  0  0  0  0  0  0  0  0  0
   -6.2792   -6.7541   -2.1187 H   0  0  0  0  0  0  0  0  0  0  0  0
   -4.5896   -6.3904   -2.5839 H   0  0  0  0  0  0  0  0  0  0  0  0
   -5.7096   -9.2820   -0.3495 H   0  0  0  0  0  0  0  0  0  0  0  0
   -6.8198   -7.9601    0.0197 H   0  0  0  0  0  0  0  0  0  0  0  0
   -5.5318   -8.4015    1.1675 H   0  0  0  0  0  0  0  0  0  0  0  0
  1  2  1  0  0  0  0
  1 25  1  0  0  0  0
  1 26  1  0  0  0  0
  1 27  1  0  0  0  0
  2  3  1  0  0  0  0
  2  4  1  0  0  0  0
  2 28  1  0  0  0  0
  3 29  1  0  0  0  0
  3 30  1  0  0  0  0
  3 31  1  0  0  0  0
  4  5  1  0  0  0  0
  4 22  1  0  0  0  0
  4 32  1  0  0  0  0
  5  6  1  0  0  0  0
  5 33  1  0  0  0  0
  5 34  1  0  0  0  0
  6  7  1  0  0  0  0
  6 35  1  0  0  0  0
  6 36  1  0  0  0  0
  7  8  1  0  0  0  0
  7 37  1  0  0  0  0
  8  9  2  0  0  0  0
  8 10  1  0  0  0  0
 10 11  1  0  0  0  0
 10 38  1  0  0  0  0
 10 39  1  0  0  0  0
 11 12  1  0  0  0  0
 11 16  1  0  0  0  0
 12 13  1  0  0  0  0
 12 14  1  0  0  0  0
 12 18  1  0  0  0  0
 14 15  1  0  0  0  0
 14 40  1  0  0  0  0
 14 41  1  0  0  0  0
 15 16  1  0  0  0  0
 15 42  1  0  0  0  0
 15 43  1  0  0  0  0
 16 17  2  0  0  0  0
 18 19  1  0  0  0  0
 18 20  1  0  0  0  0
 18 21  1  0  0  0  0
 22 23  1  0  0  0  0
 22 24  1  0  0  0  0
 22 44  1  0  0  0  0
 23 45  1  0  0  0  0
 23 46  1  0  0  0  0
 23 47  1  0  0  0  0
 24 48  1  0  0  0  0
 24 49  1  0  0  0  0
 24 50  1  0  0  0  0
M  CHG  1   4   1
M  END
$$$$
