50
1 1 C15F3H27N3O2
C                    -1.900138179616    -5.726964343777    -0.513451048238
C                    -3.232073969724    -5.334925571586     0.129495595527
C                    -3.077853214624    -5.115904077189     1.635562634374
N                    -4.293633696806    -6.426206071029    -0.147753251775
C                    -5.607909927917    -6.214867520633     0.591033750845
C                    -6.403794193758    -4.954468207784     0.220672818342
N                    -7.447570904800    -4.759702857905     1.208778038906
C                    -7.155384099230    -4.190063074924     2.413382996912
O                    -5.999807124037    -3.932199830385     2.759655698117
C                    -8.361732579726    -3.926364291652     3.321993973322
N                    -9.238089247335    -2.870248702672     2.816356247766
C                    -9.387429681485    -1.557327376890     3.438392258257
H                    -8.413565551012    -1.105387231440     3.645455014457
C                   -10.202779524641    -0.760463466446     2.391910345688
C                   -10.953358257131    -1.837649928853     1.590934262642
C                   -10.119293082942    -3.088565047269     1.787060121837
O                   -10.180330012286    -4.138955494466     1.142659833565
C                   -10.122763480007    -1.644500532715     4.783443615572
F                    -9.445033478423    -2.405759135546     5.677755112477
F                   -10.263068589001    -0.415052048778     5.319646976656
F                   -11.354830660872    -2.186700207152     4.647327399293
C                    -4.424105163903    -6.824788595689    -1.637876726317
C                    -4.689439946147    -5.641582299349    -2.565125339962
C                    -5.446944243048    -7.947040334409    -1.808519406045
H                    -1.927175960018    -5.751532221298    -1.603805630441
H                    -1.152794312706    -4.983394346479    -0.228099936913
H                    -1.546540284663    -6.697051657120    -0.145047865036
H                    -3.618889889847    -4.428069632563    -0.335305953315
H                    -3.961097785102    -4.678056238365     2.102351788695
H                    -2.249201920183    -4.420543748357     1.790743877862
H                    -2.813990000118    -6.048719079454     2.148948117557
H                    -3.905475047720    -7.267309159243     0.292911656638
H                    -6.210708182466    -7.107007745234     0.429373266882
H                    -5.357022847714    -6.170766278195     1.647975560080
H                    -5.752022784448    -4.076643660802     0.200995866482
H                    -6.881009843080    -5.055371167970    -0.753690151611
H                    -8.436338258348    -4.831986009501     0.950184461023
H                    -8.946498041299    -4.845743421038     3.433026898767
H                    -7.974903721220    -3.638932439659     4.296077066741
H                   -10.859746067716    -0.026292153837     2.858575942422
H                    -9.504597585880    -0.221505933776     1.747364232052
H                   -11.955590768226    -2.030983674457     1.984722484107
H                   -11.051480560412    -1.613074878383     0.527657678310
H                    -3.439918717547    -7.233757546051    -1.869346167368
H                    -4.631371219403    -6.008917322477    -3.593322915168
H                    -5.684247868139    -5.216181613413    -2.430376618139
H                    -3.950367928681    -4.844865484294    -2.466703734051
H                    -5.334707169568    -8.358463783303    -2.814864984052
H                    -6.477098763205    -7.594995145936    -1.713771178993
H                    -5.285677668017    -8.769852856844    -1.103852368816
