
  -OEChem-12122420533D

 50 50  0     1  0  0  0  0  0999 V2000
   -1.9001   -5.7270   -0.5135 C   0  0  0  0  0  0  0  0  0  0  0  0
   -3.2321   -5.3349    0.1295 C   0  0  0  0  0  0  0  0  0  0  0  0
   -3.0779   -5.1159    1.6356 C   0  0  0  0  0  0  0  0  0  0  0  0
   -4.2936   -6.4262   -0.1478 N   0  3  0  0  0  0  0  0  0  0  0  0
   -5.6079   -6.2149    0.5910 C   0  0  0  0  0  0  0  0  0  0  0  0
   -6.4038   -4.9545    0.2207 C   0  0  0  0  0  0  0  0  0  0  0  0
   -7.4476   -4.7597    1.2088 N   0  0  0  0  0  0  0  0  0  0  0  0
   -7.1554   -4.1901    2.4134 C   0  0  0  0  0  0  0  0  0  0  0  0
   -5.9998   -3.9322    2.7597 O   0  0  0  0  0  0  0  0  0  0  0  0
   -8.3617   -3.9264    3.3220 C   0  0  0  0  0  0  0  0  0  0  0  0
   -9.2381   -2.8702    2.8164 N   0  0  0  0  0  0  0  0  0  0  0  0
   -9.3874   -1.5573    3.4384 C   0  0  1  0  0  0  0  0  0  0  0  0
   -8.4136   -1.1054    3.6455 H   0  0  0  0  0  0  0  0  0  0  0  0
  -10.2028   -0.7605    2.3919 C   0  0  0  0  0  0  0  0  0  0  0  0
  -10.9534   -1.8376    1.5909 C   0  0  0  0  0  0  0  0  0  0  0  0
  -10.1193   -3.0886    1.7871 C   0  0  0  0  0  0  0  0  0  0  0  0
  -10.1803   -4.1390    1.1427 O   0  0  0  0  0  0  0  0  0  0  0  0
  -10.1228   -1.6445    4.7834 C   0  0  0  0  0  0  0  0  0  0  0  0
   -9.4450   -2.4058    5.6778 F   0  0  0  0  0  0  0  0  0  0  0  0
  -10.2631   -0.4151    5.3196 F   0  0  0  0  0  0  0  0  0  0  0  0
  -11.3548   -2.1867    4.6473 F   0  0  0  0  0  0  0  0  0  0  0  0
   -4.4241   -6.8248   -1.6379 C   0  0  0  0  0  0  0  0  0  0  0  0
   -4.6894   -5.6416   -2.5651 C   0  0  0  0  0  0  0  0  0  0  0  0
   -5.4469   -7.9470   -1.8085 C   0  0  0  0  0  0  0  0  0  0  0  0
   -1.9272   -5.7515   -1.6038 H   0  0  0  0  0  0  0  0  0  0  0  0
   -1.1528   -4.9834   -0.2281 H   0  0  0  0  0  0  0  0  0  0  0  0
   -1.5465   -6.6971   -0.1450 H   0  0  0  0  0  0  0  0  0  0  0  0
   -3.6189   -4.4281   -0.3353 H   0  0  0  0  0  0  0  0  0  0  0  0
   -3.9611   -4.6781    2.1024 H   0  0  0  0  0  0  0  0  0  0  0  0
   -2.2492   -4.4205    1.7907 H   0  0  0  0  0  0  0  0  0  0  0  0
   -2.8140   -6.0487    2.1489 H   0  0  0  0  0  0  0  0  0  0  0  0
   -3.9055   -7.2673    0.2929 H   0  0  0  0  0  0  0  0  0  0  0  0
   -6.2107   -7.1070    0.4294 H   0  0  0  0  0  0  0  0  0  0  0  0
   -5.3570   -6.1708    1.6480 H   0  0  0  0  0  0  0  0  0  0  0  0
   -5.7520   -4.0766    0.2010 H   0  0  0  0  0  0  0  0  0  0  0  0
   -6.8810   -5.0554   -0.7537 H   0  0  0  0  0  0  0  0  0  0  0  0
   -8.4363   -4.8320    0.9502 H   0  0  0  0  0  0  0  0  0  0  0  0
   -8.9465   -4.8457    3.4330 H   0  0  0  0  0  0  0  0  0  0  0  0
   -7.9749   -3.6389    4.2961 H   0  0  0  0  0  0  0  0  0  0  0  0
  -10.8597   -0.0263    2.8586 H   0  0  0  0  0  0  0  0  0  0  0  0
   -9.5046   -0.2215    1.7474 H   0  0  0  0  0  0  0  0  0  0  0  0
  -11.9556   -2.0310    1.9847 H   0  0  0  0  0  0  0  0  0  0  0  0
  -11.0515   -1.6131    0.5277 H   0  0  0  0  0  0  0  0  0  0  0  0
   -3.4399   -7.2338   -1.8693 H   0  0  0  0  0  0  0  0  0  0  0  0
   -4.6314   -6.0089   -3.5933 H   0  0  0  0  0  0  0  0  0  0  0  0
   -5.6842   -5.2162   -2.4304 H   0  0  0  0  0  0  0  0  0  0  0  0
   -3.9504   -4.8449   -2.4667 H   0  0  0  0  0  0  0  0  0  0  0  0
   -5.3347   -8.3585   -2.8149 H   0  0  0  0  0  0  0  0  0  0  0  0
   -6.4771   -7.5950   -1.7138 H   0  0  0  0  0  0  0  0  0  0  0  0
   -5.2857   -8.7699   -1.1039 H   0  0  0  0  0  0  0  0  0  0  0  0
  1  2  1  0  0  0  0
  1 25  1  0  0  0  0
  1 26  1  0  0  0  0
  1 27  1  0  0  0  0
  2  3  1  0  0  0  0
  2  4  1  0  0  0  0
  2 28  1  0  0  0  0
  3 29  1  0  0  0  0
  3 30  1  0  0  0  0
  3 31  1  0  0  0  0
  4  5  1  0  0  0  0
  4 22  1  0  0  0  0
  4 32  1  0  0  0  0
  5  6  1  0  0  0  0
  5 33  1  0  0  0  0
  5 34  1  0  0  0  0
  6  7  1  0  0  0  0
  6 35  1  0  0  0  0
  6 36  1  0  0  0  0
  7  8  1  0  0  0  0
  7 37  1  0  0  0  0
  8  9  2  0  0  0  0
  8 10  1  0  0  0  0
 10 11  1  0  0  0  0
 10 38  1  0  0  0  0
 10 39  1  0  0  0  0
 11 12  1  0  0  0  0
 11 16  1  0  0  0  0
 12 13  1  0  0  0  0
 12 14  1  0  0  0  0
 12 18  1  0  0  0  0
 14 15  1  0  0  0  0
 14 40  1  0  0  0  0
 14 41  1  0  0  0  0
 15 16  1  0  0  0  0
 15 42  1  0  0  0  0
 15 43  1  0  0  0  0
 16 17  2  0  0  0  0
 18 19  1  0  0  0  0
 18 20  1  0  0  0  0
 18 21  1  0  0  0  0
 22 23  1  0  0  0  0
 22 24  1  0  0  0  0
 22 44  1  0  0  0  0
 23 45  1  0  0  0  0
 23 46  1  0  0  0  0
 23 47  1  0  0  0  0
 24 48  1  0  0  0  0
 24 49  1  0  0  0  0
 24 50  1  0  0  0  0
M  CHG  1   4   1
M  END
$$$$
