43
1 1 C15H24NO3
C                     4.313158827724     5.007313103483     1.795386698788
C                     4.033232084439     3.568623441858     1.340294863832
C                     5.203298847137     2.995151553312     0.518861398375
N                     5.262248579852     3.719440418011    -0.821902946187
C                     3.747678102447     2.602753422170     2.482651854571
C                     4.191026743667     2.842163918699     3.790519331612
C                     3.962190800630     1.896881818857     4.790897812140
C                     3.276892861128     0.707736947689     4.520238808642
C                     2.807025609976     0.468903180235     3.208206960959
C                     3.065182092774     1.406804236966     2.205971634641
O                     2.136491952781    -0.689838242927     2.932121536213
C                     0.714339809253    -0.559784815243     2.606850619058
C                     0.196606066347    -1.978223330693     2.391538947955
C                    -0.019611079881    -2.534700338569     3.818620811125
C                    -0.234656918813    -1.291380003231     4.731744208613
C                    -0.087422620545    -0.057361814783     3.809345996238
O                     3.020595605417    -0.135129448950     5.559702730709
C                     3.516784739582    -1.486732655146     5.448859255997
O                     2.965840443489     3.573419131497     0.361053022874
H                     3.494748313542     5.369716761227     2.422205190655
H                     4.380648284679     5.683788838659     0.936180680453
H                     5.237901670858     5.085567765896     2.371974446252
H                     6.164627012910     3.109604222980     1.019103262666
H                     5.024595168625     1.945230073543     0.288188998746
H                     5.634775080130     4.670714068612    -0.731496766319
H                     4.286465033677     3.794052796017    -1.158123487058
H                     5.828640098486     3.220317996358    -1.516762731587
H                     4.716353195276     3.754900074888     4.050421268397
H                     4.297407947425     2.071231003938     5.808849145979
H                     2.704548210001     1.197370253561     1.202757431027
H                     0.620579360258     0.078521246016     1.720495005176
H                    -0.754308193551    -1.914909330644     1.851307230646
H                     0.884320350704    -2.575293411272     1.787009061528
H                    -0.866596533719    -3.224576375333     3.851977671228
H                     0.860453363106    -3.097872411846     4.140532902938
H                    -1.213683083015    -1.304187959725     5.217397059381
H                     0.515420031971    -1.258242836339     5.524367652731
H                     0.379860303739     0.798671521586     4.304105362373
H                    -1.065589152244     0.275184193622     3.442837500288
H                     3.238284933229    -1.977096659493     6.381955706454
H                     4.608412670323    -1.474784870916     5.352929201605
H                     3.068295205262    -2.004031033377     4.599824118902
H                     2.119040921356     3.741680524360     0.808155647226
