24   
torsion grid (-165,)
C       -1.4802053735    0.6169378126   -1.2015224336
N       -0.5427101722   -0.0781142874   -0.3272135236
C       -0.1189480268    0.4458587209    0.7561440251
N       -0.3184632826    1.6785067578    1.3518365809
C       -0.6593616928    2.8646775413    0.5963773580
C       -1.9129917432    3.4761955679    0.7584326756
C       -2.2635354165    4.6123691239    0.0387008326
C       -1.3670086355    5.2429662861   -0.9145352292
C       -0.0824749514    4.5749499990   -1.0433695010
C        0.2477487469    3.4404745018   -0.3125328518
O       -1.6759677927    6.2835065234   -1.5773311025
O        0.7141267659   -0.2965707621    1.5834469291
C        0.9648877655   -1.6336532094    1.1615443721
H       -1.8169543252   -0.0916943261   -1.9685866485
H       -1.0331182337    1.4812316146   -1.7050493428
H       -2.3647858637    0.9900476772   -0.6708772767
H        0.3696967974    1.8315767102    2.0828411707
H       -2.6196597282    3.0280928450    1.4580183756
H       -3.2423882136    5.0699869607    0.1756258969
H        0.6293311362    5.0023011802   -1.7484085794
H        1.2203781822    2.9652005815   -0.4543105287
H        1.6091656284   -2.0665627642    1.9325141826
H        1.4665873817   -1.6539777128    0.1888348399
H        0.0338281804   -2.2034322365    1.0769693259
24   
torsion grid (-150,)
C       -1.3315276599    0.6826264256   -1.2714785334
N       -0.5986653373   -0.0773715382   -0.2655525733
C       -0.0842882505    0.4537927635    0.7736206131
N       -0.0359100631    1.7427124855    1.2750403321
C       -0.5169596691    2.9018432937    0.5628163460
C       -1.8166786765    3.3843894649    0.7878459881
C       -2.3134462316    4.4809744675    0.0926988979
C       -1.5255259229    5.2116016002   -0.8841316417
C       -0.1827592834    4.6853684737   -1.0669341572
C        0.2885062066    3.5787722847   -0.3713244862
O       -1.9666127613    6.2205043792   -1.5206930290
O        0.6214305160   -0.3552033906    1.6575672698
C        0.7317856340   -1.7241813204    1.2823652485
H       -1.6598612853   -0.0189064334   -2.0486517957
H       -0.7297442815    1.4639532572   -1.7479715962
H       -2.2196033708    1.1817428667   -0.8673870732
H        0.8119943503    1.8937577862    1.8118975423
H       -2.4414626963    2.8647651677    1.5152418927
H       -3.3276377866    4.8337123599    0.2749202227
H        0.4551675761    5.1951494351   -1.7877528168
H        1.2970652878    3.2056347723   -0.5624717976
H        1.3269864902   -2.1949417661    2.0706296272
H        1.2282318851   -1.8329994336    0.3123506044
H       -0.2533075371   -2.1968222961    1.2149044626
24   
torsion grid (-135,)
C       -1.2002078500    0.6985041118   -1.3346849197
N       -0.6458824846   -0.0782890534   -0.2323323871
C       -0.0662303913    0.4611197452    0.7683879623
N        0.1653152397    1.7711709499    1.1596438999
C       -0.4178927542    2.9160138008    0.5064067913
C       -1.7378791020    3.2994728585    0.7952199685
C       -2.3351655219    4.3793990188    0.1533179181
C       -1.6355102679    5.1989430089   -0.8192305434
C       -0.2659656867    4.7780068927   -1.0614067670
C        0.3038073218    3.6799990758   -0.4275373827
O       -2.1677724045    6.1958558459   -1.4042731850
O        0.5387884195   -0.3603270319    1.7118652761
C        0.5429144558   -1.7505086538    1.4022909143
H       -1.5304426566   -0.0054853474   -2.1085900246
H       -0.4782948216    1.3885832863   -1.7853624841
H       -2.0612153164    1.3064157339   -1.0352720489
H        1.1184819361    1.9077355454    1.4789135891
H       -2.2977844212    2.7173396759    1.5281163017
H       -3.3643127060    4.6522809250    0.3827183454
H        0.3114221710    5.3595366532   -1.7789225040
H        1.3279732923    3.3858633904   -0.6696135741
H        1.0961234649   -2.2288424361    2.2161779678
H        1.0327495187   -1.9446737675    0.4418339563
H       -0.4758423018   -2.1472391230    1.3498824772
24   
torsion grid (-120,)
C       -1.0919008023    0.7153191436   -1.3823592093
N       -0.6449312683   -0.0634253376   -0.2339349227
C       -0.0450372463    0.4721708236    0.7570245231
N        0.2898527383    1.7843058966    1.0894550390
C       -0.3572475796    2.9189947105    0.4765050608
C       -1.6795541234    3.2465879080    0.8174604234
C       -2.3392401661    4.3135604823    0.2145800400
C       -1.7059181332    5.1774623206   -0.7645444880
C       -0.3303468079    4.8152675028   -1.0576542256
C        0.3013948306    3.7266576540   -0.4656647620
O       -2.2963433190    6.1631595944   -1.3134078044
O        0.4853857510   -0.3509185784    1.7395899427
C        0.4026015749   -1.7493097189    1.4799669679
H       -1.4324459503    0.0130047962   -2.1529783436
H       -0.3020477113    1.3410341409   -1.8136131718
H       -1.9206644729    1.3890226977   -1.1384946120
H        1.2921473670    1.9052153495    1.1927210921
H       -2.1921923313    2.6330792282    1.5593653883
H       -3.3693024651    4.5421371521    0.4847724771
H        0.2017687736    5.4326471134   -1.7801906217
H        1.3274316303    3.4780475901   -0.7497718025
H        0.9173462269   -2.2327252807    2.3157104547
H        0.8857027538   -2.0090564067    0.5314599242
H       -0.6392821360   -2.0813636767    1.4315521778
24   
torsion grid (-105,)
C       -0.9508279183    0.7225628997   -1.4470369849
N       -0.6044925367   -0.0510021702   -0.2612680341
C       -0.0017483832    0.4848233968    0.7278138982
N        0.4168460295    1.7965082756    1.0056636374
C       -0.2981501604    2.9186470297    0.4413764891
C       -1.6155568804    3.1887689525    0.8452842330
C       -2.3397150059    4.2416189668    0.2927366158
C       -1.7828247064    5.1484967205   -0.6935122400
C       -0.4092355790    4.8451645759   -1.0514576478
C        0.2872334227    3.7682439342   -0.5107141188
O       -2.4343616175    6.1215021827   -1.1955064791
O        0.4379730776   -0.3252123963    1.7596073039
C        0.2428941020   -1.7242073468    1.5693105328
H       -1.2888972107    0.0226498131   -2.2205426686
H       -0.1066353403    1.2963098915   -1.8480305338
H       -1.7527029974    1.4437638456   -1.2547983633
H        1.4215343572    1.8971885537    0.8978304654
H       -2.0737690597    2.5437481291    1.5961112193
H       -3.3647141663    4.4255350902    0.6119236691
H        0.0692335497    5.4965439756   -1.7816354220
H        1.3088752220    3.5656451612   -0.8447295414
H        0.6891341425   -2.2040570430    2.4453248473
H        0.7291125499   -2.0739227416    0.6516463882
H       -0.8220277580   -1.9684445910    1.5021522815
24   
torsion grid (-90,)
C        1.2233839665   -0.2993988334   -1.8428461058
N        0.3448555879   -0.4894584994   -0.7003397518
C        0.0875867943    0.5260045514    0.0374615595
N        0.5741891829    1.8406974787   -0.1511878726
C       -0.3279659846    2.9481888179    0.1201786772
C       -0.3495607828    3.6210635769    1.3533026904
C       -1.1945040217    4.7040474421    1.5732599988
C       -2.1224353811    5.1909860057    0.5683930252
C       -2.0693741930    4.4544256626   -0.6807491117
C       -1.1979015222    3.3898116057   -0.8901616533
O       -2.9064596403    6.1761827576    0.7657125761
O       -0.7880030934    0.4094061336    1.0751873210
C       -1.5018062568   -0.8218489260    1.1655425517
H        2.2548743657   -0.5918866950   -1.5941577914
H        1.2468133802    0.7388917225   -2.1987176841
H        0.8958996395   -0.9593747074   -2.6562263365
H        1.4533802195    1.9676286707    0.3442185299
H        0.3067426321    3.2748998576    2.1554838058
H       -1.1884382395    5.2198256020    2.5328160327
H       -2.7383512716    4.7798223455   -1.4766261183
H       -1.1767841248    2.8785068994   -1.8539839766
H       -2.2059861045   -0.6903914852    1.9905207759
H       -0.8246829001   -1.6592127667    1.3665915260
H       -2.0382951192   -1.0279421113    0.2338768791
24   
torsion grid (-75,)
C        1.4016437525   -0.3632247709   -1.7042393882
N        0.4250436120   -0.5351064295   -0.6415561513
C        0.0421808886    0.5202228510   -0.0167449225
N        0.4614082834    1.8362905812   -0.2821931716
C       -0.3967287737    2.9541417755    0.0674264731
C       -0.2597628380    3.6551598242    1.2770253788
C       -1.0615198448    4.7526619791    1.5737861507
C       -2.1002806947    5.2277156740    0.6775208106
C       -2.2074402439    4.4625496236   -0.5510312353
C       -1.3792824723    3.3826852006   -0.8395927063
O       -2.8451636026    6.2265320391    0.9440958007
O       -0.9389554090    0.4403448627    0.9212112771
C       -1.5982472461   -0.8183940502    1.0375604113
H        2.4333491300   -0.3920226185   -1.3184448035
H        1.2817276766    0.5880259903   -2.2426013370
H        1.3069359589   -1.1949903066   -2.4132301808
H        1.4052995738    1.9894157295    0.0628625513
H        0.4882777105    3.3205007970    2.0002459339
H       -0.9336140119    5.2891171697    2.5132519146
H       -2.9659797573    4.7783253707   -1.2663130462
H       -1.4819638963    2.8483777231   -1.7854000340
H       -2.3997609410   -0.6595560221    1.7627091496
H       -0.9103243648   -1.5952678713    1.3882219983
H       -2.0096653568   -1.1326300168    0.0729786741
24   
torsion grid (-60,)
C        1.5102595676   -0.3908931629   -1.5841575202
N        0.4721681540   -0.5624711088   -0.5822630460
C       -0.0174944061    0.5116967089   -0.0676678053
N        0.3309898115    1.8200622182   -0.4089072584
C       -0.4735499262    2.9542402540    0.0059662217
C       -0.2443306813    3.6260269799    1.2188318139
C       -0.9885406980    4.7441145990    1.5788032726
C       -2.0541834758    5.2762201997    0.7478426984
C       -2.2565315997    4.5399590256   -0.4866216058
C       -1.4877157007    3.4352200202   -0.8375830886
O       -2.7438084837    6.2967403128    1.0724446648
O       -1.0583182891    0.4421448602    0.8015090493
C       -1.6321791087   -0.8493254057    0.9893620329
H        2.4946296751   -0.1687111911   -1.1378312530
H        1.2877105973    0.4236904719   -2.2908645101
H        1.6236230654   -1.3255888856   -2.1461956062
H        1.3191553216    1.9876594446   -0.2427650102
H        0.5304019027    3.2510414338    1.8920806146
H       -0.7921419262    5.2556778956    2.5202763886
H       -3.0409594075    4.8964836583   -1.1531203246
H       -1.6628971475    2.9214603681   -1.7838837007
H       -2.4859967234   -0.6913496479    1.6522500265
H       -0.9139047247   -1.5388906505    1.4451274973
H       -1.9592086634   -1.2743332927    0.0349159957
24   
torsion grid (-45,)
C        1.5919734149   -0.3954172357   -1.4750360004
N        0.5030040724   -0.5705686656   -0.5305708560
C       -0.0801091222    0.5040560036   -0.1197500625
N        0.2062633756    1.8019241662   -0.5185115424
C       -0.5424865778    2.9522272392   -0.0518291169
C       -0.2441525710    3.5849732667    1.1677849780
C       -0.9327412814    4.7198406933    1.5800500459
C       -2.0037268514    5.3146181506    0.7992404886
C       -2.2764424044    4.6179809174   -0.4447377731
C       -1.5664089387    3.4918527781   -0.8468621241
O       -2.6409704314    6.3520186648    1.1723589790
O       -1.1607108751    0.4293789712    0.6967087397
C       -1.6482407385   -0.8827189227    0.9675112780
H        2.5014041508    0.0262680774   -1.0105180196
H        1.3254703442    0.2676851715   -2.3141746586
H        1.8731723142   -1.3726210403   -1.8843233836
H        1.2075400236    1.9678926648   -0.5361971201
H        0.5401947089    3.1649718392    1.8017066280
H       -0.6855782255    5.1996986934    2.5262043685
H       -3.0693643951    5.0204406190   -1.0739119059
H       -1.7962633997    3.0060790603   -1.7960516594
H       -2.5367402901   -0.7362106575    1.5859053218
H       -0.9018211503   -1.4788095975    1.5022842773
H       -1.9060880190   -1.4046857519    0.0402686651
24   
torsion grid (-30,)
C        1.6345067590   -0.3831350603   -1.4076283610
N        0.5160009468   -0.5694127807   -0.5028241478
C       -0.1330376778    0.4933669403   -0.1588610770
N        0.1071279168    1.7836163379   -0.5780514013
C       -0.5975200002    2.9479496710   -0.0849096031
C       -0.2696109664    3.5407947125    1.1478245985
C       -0.9111587178    4.6916934911    1.5887324248
C       -1.9560557796    5.3487121286    0.8219953580
C       -2.2601850122    4.6933702959   -0.4373288697
C       -1.6009156668    3.5462350819   -0.8645038468
O       -2.5484922517    6.4030168014    1.2192868846
O       -1.2311997393    0.4001070893    0.6333615365
C       -1.6392190095   -0.9213616612    0.9783826507
H        2.4759831058    0.1721799328   -0.9531189847
H        1.3570340889    0.1563132156   -2.3294118196
H        2.0280400505   -1.3633716023   -1.7000599215
H        1.0852054114    1.9418116760   -0.7913105250
H        0.5002421482    3.0751655613    1.7666508407
H       -0.6447504807    5.1379379185    2.5460824612
H       -3.0381919411    5.1419329679   -1.0537773686
H       -1.8566404726    3.0881888675   -1.8208193604
H       -2.5425790416   -0.7937076352    1.5793378740
H       -0.8643557691   -1.4362055877    1.5553205737
H       -1.8530507678   -1.5143232566    0.0831796313
24   
torsion grid (-15,)
C        1.9604959432   -0.4841788374   -0.4152687962
N        0.5452166862   -0.6387992212   -0.1416436419
C       -0.1486854443    0.4473083193   -0.0330371321
N        0.2960443099    1.7365764068   -0.1633492927
C       -0.4684367705    2.9309947553    0.1080371909
C       -0.6410145020    3.4070135904    1.4206381732
C       -1.3287527263    4.5866200509    1.6764657496
C       -1.9108872174    5.3974683304    0.6204355193
C       -1.7101532416    4.8605222620   -0.7138631963
C       -1.0163516960    3.6790749150   -0.9478615969
O       -2.5394764772    6.4808369126    0.8458690458
O       -1.4863383875    0.3854321610    0.1950072009
C       -2.0450897701   -0.9238414456    0.2629841645
H        2.5090041301    0.0385907768    0.3907009123
H        2.1635439319    0.0673670814   -1.3504170260
H        2.4182598946   -1.4748987632   -0.5159539180
H        1.3035041810    1.8222493534   -0.1267348027
H       -0.2271948649    2.8258572882    2.2467930521
H       -1.4548141669    4.9401284514    2.6991077771
H       -2.1305574486    5.4261647166   -1.5444499145
H       -0.8879006387    3.3098784205   -1.9662506328
H       -3.1132241487   -0.7696556288    0.4332234991
H       -1.6053220645   -1.4990945887    1.0839807953
H       -1.8799638017   -1.4734424226   -0.6694311078
24   
torsion grid (0,)
C        1.9557940554   -0.4816942190   -0.4502343423
N        0.5359879050   -0.6409890944   -0.2058778643
C       -0.1479367389    0.4411908074   -0.0155598888
N        0.3099608389    1.7278526194   -0.0143385918
C       -0.4604155911    2.9283580824    0.1918955941
C       -0.6353117155    3.4611533706    1.4816668149
C       -1.3296548602    4.6473135552    1.6848691847
C       -1.9132005492    5.4099940366    0.5947890773
C       -1.7081651382    4.8153400026   -0.7147298134
C       -1.0115652032    3.6270369254   -0.8971660201
O       -2.5458093269    6.5000058845    0.7709264009
O       -1.4850487988    0.3734713259    0.2182267796
C       -2.0475487991   -0.9357470945    0.2314385980
H        2.4930358383   -0.0030014095    0.3892069393
H        2.1800211948    0.1127974015   -1.3550858762
H        2.4090654453   -1.4687466991   -0.5970782667
H        1.3017233414    1.8225661677   -0.1838861607
H       -0.2158269275    2.9189696868    2.3305578088
H       -1.4581965232    5.0443371789    2.6910359193
H       -2.1302969018    5.3425711214   -1.5693394270
H       -0.8852882063    3.2138177911   -1.8991737777
H       -3.1116737865   -0.7867583754    0.4294685382
H       -1.5946027848   -1.5533123649    1.0137413578
H       -1.9031410579   -1.4383538160   -0.7303709620
24   
torsion grid (15,)
C        1.9522370562   -0.4812641642   -0.4658584671
N        0.5234388129   -0.6300415182   -0.2700193753
C       -0.1431726191    0.4459250050   -0.0036403249
N        0.3472472026    1.7179098123    0.1336031515
C       -0.4395029383    2.9201383812    0.2769176144
C       -0.5950774281    3.5213870391    1.5374805778
C       -1.3032698697    4.7076663229    1.6895630757
C       -1.9203554687    5.4007162320    0.5725477958
C       -1.7326650218    4.7363568939   -0.7060721725
C       -1.0233839929    3.5491428223   -0.8378806589
O       -2.5659450931    6.4900552707    0.7003284488
O       -1.4813730856    0.3843906321    0.2210491675
C       -2.0603249559   -0.9169645097    0.1732013863
H        2.4683271231   -0.0549313373    0.4127067838
H        2.2128027388    0.1565166294   -1.3313540388
H        2.3941700737   -1.4659441155   -0.6563148293
H        1.2869528514    1.8291152117   -0.2245297633
H       -0.1471919632    3.0333179693    2.4041689386
H       -1.4161461397    5.1582784908    2.6747826208
H       -2.1800281358    5.2094879453   -1.5793141013
H       -0.9156406725    3.0825953043   -1.8188859009
H       -3.1207752945   -0.7654379459    0.3880095229
H       -1.6078869659   -1.5789062976    0.9187462034
H       -1.9305305040   -1.3713371894   -0.8142536327
24   
torsion grid (30,)
C        1.6729342072   -0.6338328621    1.0668406196
N        0.4593843323   -0.6263515761    0.2720693487
C       -0.1914807532    0.4884463679    0.2205519302
N        0.1294651448    1.6662022207    0.8593091372
C       -0.5894829099    2.9109501860    0.6885999258
C       -0.3782414243    3.7367280843   -0.4303651866
C       -1.0292632130    4.9573612742   -0.5598904691
C       -1.9661990834    5.4548446199    0.4331034075
C       -2.1527526878    4.5622925418    1.5628874452
C       -1.4855638463    3.3479240495    1.6778449833
O       -2.5665607433    6.5717438224    0.3213546000
O       -1.3700710993    0.5644061344   -0.4483359240
C       -1.8508907021   -0.6576245986   -1.0026280570
H        1.5110011811   -0.2894896052    2.1026448593
H        2.4767305778   -0.0039090997    0.6424097955
H        2.0670674452   -1.6555113274    1.1124145235
H        1.1289193452    1.7712495816    0.9904791345
H        0.3068577465    3.3991503015   -1.2108206571
H       -0.8539825196    5.5846976648   -1.4330164791
H       -2.8466880842    4.8837007774    2.3385552395
H       -1.6507203065    2.7091281335    2.5464079925
H       -2.8089429920   -0.4050906239   -1.4629122511
H       -1.9855107489   -1.4170097724   -0.2254956091
H       -1.1571769743   -1.0514571535   -1.7522827066
24   
torsion grid (45,)
C        1.6343872478   -0.6591085612    1.1392955434
N        0.4496823737   -0.6328774912    0.3003897009
C       -0.1422024602    0.5066596331    0.1765586512
N        0.2219013196    1.6954902615    0.7913010540
C       -0.5389890056    2.9215804936    0.6498963751
C       -0.3589243812    3.7826732301   -0.4469383930
C       -1.0533249986    4.9826549227   -0.5453666120
C       -2.0113374198    5.4173340079    0.4564737850
C       -2.1655149353    4.4891743797    1.5619181028
C       -1.4503292377    3.2997000668    1.6488657921
O       -2.6538955650    6.5133346795    0.3716709521
O       -1.3045250494    0.6046424030   -0.5165242452
C       -1.8545927691   -0.6228099609   -0.9890296854
H        1.4771288790   -0.1710387474    2.1151153577
H        2.5046696549   -0.1648263104    0.6712258104
H        1.9247004667   -1.7008255123    1.3186633442
H        1.2236595487    1.8484675740    0.7336415205
H        0.3364392816    3.4910504095   -1.2373810849
H       -0.8988308499    5.6394176675   -1.4005999764
H       -2.8707089564    4.7643737090    2.3452183069
H       -1.5881083708    2.6357855679    2.5032870770
H       -2.7991847518   -0.3492083741   -1.4646964460
H       -2.0269953857   -1.3196769224   -0.1624430794
H       -1.1862727437   -1.1034179849   -1.7108162482
24   
torsion grid (60,)
C        1.5683964128   -0.6760163695    1.2507820551
N        0.4248798803   -0.6351307129    0.3555154490
C       -0.0857857794    0.5239447867    0.1227795700
N        0.3347787972    1.7344153351    0.6774601573
C       -0.4761627101    2.9345584862    0.5876027456
C       -0.3580706077    3.8346022402   -0.4851553041
C       -1.1033584871    5.0076324389   -0.5311372877
C       -2.0581138169    5.3697975238    0.5015898412
C       -2.1490370448    4.4020896070    1.5796429485
C       -1.3798674333    3.2437544086    1.6167282523
O       -2.7481930719    6.4397654648    0.4646134507
O       -1.2150565113    0.6379025801   -0.6224668096
C       -1.8426692010   -0.5853559333   -0.9995442611
H        1.4468188727   -0.0179298273    2.1252259598
H        2.5057533894   -0.3766618870    0.7514822232
H        1.7131408560   -1.7052685074    1.6002115105
H        1.3039669892    1.9252099945    0.4398585395
H        0.3290119791    3.5968370378   -1.3009179074
H       -0.9937082538    5.6964007497   -1.3679261025
H       -2.8470368677    4.6231859737    2.3862229877
H       -1.4680254597    2.5516794525    2.4553992805
H       -2.7577486534   -0.2913593228   -1.5187537424
H       -2.0775165548   -1.1918948095   -0.1189199202
H       -1.1975648319   -1.1736095689   -1.6605680334
24   
torsion grid (75,)
C        1.4728839986   -0.6717244039    1.3857850754
N        0.3842741827   -0.6201296156    0.4241663190
C       -0.0319347423    0.5418837688    0.0675549338
N        0.4519485044    1.7745114047    0.5413627827
C       -0.4052435105    2.9462693362    0.5180267891
C       -0.3778923718    3.8752408136   -0.5353043984
C       -1.1747200115    5.0154413970   -0.5156058837
C       -2.0972779771    5.3084800512    0.5665546005
C       -2.0948685457    4.3126225087    1.6222501949
C       -1.2722007354    3.1911484211    1.5951528357
O       -2.8366211224    6.3460028442    0.5883435127
O       -1.1095389707    0.6590738620   -0.7533384169
C       -1.8140355092   -0.5458546984   -1.0439280405
H        1.4377261438    0.1522966805    2.1130366995
H        2.4563693849   -0.6283391532    0.8908725752
H        1.4310313097   -1.6286692644    1.9205537593
H        1.3577561846    1.9867223063    0.1316074223
H        0.2781405108    3.6878462136   -1.3892032711
H       -1.1326375822    5.7291735399   -1.3375049117
H       -2.7627427260    4.4831784153    2.4658172490
H       -1.2885168050    2.4780387990    2.4208385586
H       -2.6833422319   -0.2388681903   -1.6300665012
H       -2.1292497944   -1.0442184701   -0.1215898407
H       -1.1904756920   -1.2415774254   -1.6156564407
24   
torsion grid (90,)
C        1.3182885637   -0.6329545829    1.5529370880
N        0.3165862128   -0.5848890313    0.5004355750
C        0.0097453585    0.5595246913    0.0125629631
N        0.5507342794    1.8065999653    0.4035177016
C       -0.3441107138    2.9511804192    0.4585584768
C       -0.4730465221    3.8614467040   -0.6037219924
C       -1.3069117595    4.9709978077   -0.5097780066
C       -2.1149069487    5.2478949867    0.6642253656
C       -1.9544756728    4.2716344150    1.7257779858
C       -1.0948035674    3.1821103134    1.6229126713
O       -2.8886164434    6.2566961158    0.7536292770
O       -0.9750157587    0.6582643409   -0.9242229079
C       -1.7293048321   -0.5253639778   -1.1764287768
H        1.4062285446    0.3114871506    2.1057077305
H        2.3091985326   -0.8715449496    1.1375690960
H        1.0642702781   -1.4432441658    2.2481283179
H        1.3744891257    2.0249940954   -0.1516498696
H        0.0888632472    3.6828168855   -1.5237718977
H       -1.3845248692    5.6716847136   -1.3403188931
H       -2.5301071210    4.4313825154    2.6367932329
H       -0.9895405583    2.4848516495    2.4557470446
H       -2.5146142422   -0.2268887161   -1.8749463459
H       -2.1673771446   -0.9102476359   -0.2500112873
H       -1.1022160971   -1.3098845691   -1.6139269462
24   
torsion grid (105,)
C       -0.8703378801    0.4707928657    1.6216121147
N       -0.6763930398   -0.0624717246    0.2790611346
C       -0.1598916120    0.6469845440   -0.6475938559
N        0.2736020632    1.9815312537   -0.7111268575
C       -0.3406910637    2.9826507864    0.1308175339
C       -1.6833605013    3.3413558771   -0.0699266559
C       -2.3117918893    4.2769906990    0.7472888284
C       -1.6261208515    4.9703270438    1.8217328295
C       -0.2336253210    4.5867194860    1.9651793790
C        0.3680870080    3.6255537718    1.1580712975
O       -2.1898951256    5.8367078555    2.5666295368
O        0.1426765634    0.0469817816   -1.8569419326
C       -0.0811377223   -1.3593203474   -1.9187447970
H        0.0303417970    0.9437586561    2.0311647944
H       -1.1506784630   -0.3611588510    2.2786783294
H       -1.6621391618    1.2269341295    1.6591571108
H        1.2869264770    2.0451052452   -0.6944703708
H       -2.2376959527    2.8584393481   -0.8757035269
H       -3.3578170471    4.5313097560    0.5814858029
H        0.3389387200    5.0795891952    2.7497971540
H        1.4116800297    3.3500406233    1.3353100430
H        0.2543764873   -1.6659824044   -2.9138124705
H       -1.1413109302   -1.5962539338   -1.7842328303
H        0.4850893077   -1.8880365160   -1.1437069889
24   
torsion grid (120,)
C       -1.0177104390    0.4793203286    1.5729576138
N       -0.7186098021   -0.0679871068    0.2553302783
C       -0.2070090605    0.6407161994   -0.6744440548
N        0.1352868038    1.9881493170   -0.7853380712
C       -0.4058020339    2.9910751247    0.0999084091
C       -1.7440840481    3.3971656883   -0.0267033741
C       -2.3006938416    4.3353300383    0.8376987316
C       -1.5402537582    4.9833697524    1.8902458406
C       -0.1550992081    4.5518511105    1.9581475342
C        0.3738380537    3.5907739136    1.1031102262
O       -2.0363113401    5.8516486721    2.6785380091
O        0.1904464008    0.0161395106   -1.8475273286
C        0.0888538681   -1.4049155771   -1.8521432622
H       -0.1672383636    1.0003001690    2.0274349304
H       -1.2988153360   -0.3546660575    2.2275755265
H       -1.8449652717    1.1972586998    1.5535786022
H        1.1250307504    2.1134932967   -0.9713027820
H       -2.3515767853    2.9469155563   -0.8127219933
H       -3.3446339701    4.6263883633    0.7292826948
H        0.4697740322    5.0092326544    2.7241189910
H        1.4145069877    3.2773778780    1.2216078469
H        0.4992155013   -1.7242418128   -2.8148377210
H       -0.9529390925   -1.7270835706   -1.7571048284
H        0.6576218448   -1.8490630072   -1.0276862163
24   
torsion grid (135,)
C       -1.1311456439    0.4727710854    1.5344029481
N       -0.7204625563   -0.0829397168    0.2505071439
C       -0.2293399189    0.6324289814   -0.6851449367
N        0.0049508032    1.9902516685   -0.8411804596
C       -0.4683673269    2.9944537451    0.0780906254
C       -1.7973469751    3.4442273847    0.0122618904
C       -2.2880621510    4.3871177527    0.9095811115
C       -1.4641342233    4.9931398870    1.9395819924
C       -0.0919750341    4.5150116002    1.9474395899
C        0.3715496104    3.5531906810    1.0574411605
O       -1.8988848179    5.8647559241    2.7585365501
O        0.2466048790    0.0014319744   -1.8280760807
C        0.2354003199   -1.4223167631   -1.7924660030
H       -0.3434920536    1.0527075692    2.0281160031
H       -1.4033076093   -0.3634063758    2.1903905083
H       -1.9973559200    1.1386251020    1.4515961619
H        0.9241024537    2.1733331894   -1.2294462402
H       -2.4494664225    3.0227376248   -0.7536328680
H       -3.3255435845    4.7130245753    0.8491418661
H        0.5759189043    4.9386563890    2.6963245125
H        1.4046653580    3.2040431331    1.1267137784
H        0.6849312774   -1.7411915486   -2.7377147688
H       -0.7853913147   -1.8079697375   -1.7072335078
H        0.8149838380   -1.8055349848   -0.9455053751
24   
torsion grid (150,)
C       -1.2688187839    0.4713643950    1.4838415535
N       -0.6701997598   -0.0890970008    0.2779677089
C       -0.2481659486    0.6264482234   -0.6897445221
N       -0.2079002072    1.9873779863   -0.9374638153
C       -0.5730693884    2.9927936599    0.0310804145
C       -1.8719696860    3.5270541293    0.0442155249
C       -2.2566034343    4.4746115058    0.9858691011
C       -1.3477328031    4.9915622784    1.9935952796
C       -0.0119663768    4.4218841396    1.9260759005
C        0.3471969703    3.4649367155    0.9849319518
O       -1.6861086209    5.8637603597    2.8552426946
O        0.3343678656   -0.0052153487   -1.7831287543
C        0.4364496527   -1.4222991687   -1.6908569110
H       -0.5948319190    1.1375269209    2.0330491584
H       -1.5386155423   -0.3629770047    2.1434051963
H       -2.1764820524    1.0510716582    1.2809269860
H        0.5845960930    2.2282421600   -1.5238919006
H       -2.5859156147    3.1666683976   -0.6973238055
H       -3.2716450172    4.8694412730    0.9850955058
H        0.7139864336    4.7737261285    2.6579171561
H        1.3568795249    3.0484363910    0.9911308217
H        0.9305205949   -1.7392428651   -2.6142620491
H       -0.5518287113   -1.8859077572   -1.6089035855
H        1.0266886230   -1.7236180362   -0.8190440076
24   
torsion grid (165,)
C       -1.4260365802    0.4222792668    1.4191334426
N       -0.6080747496   -0.1025607832    0.3319819669
C       -0.2810180660    0.6157806920   -0.6704215496
N       -0.4990276524    1.9430844240   -0.9941684550
C       -0.7194424245    2.9647553135    0.0066002444
C       -1.9615850038    3.6128374224    0.1008317616
C       -2.1969796641    4.5925263326    1.0582189656
C       -1.1859005561    5.0143563646    2.0120810043
C        0.0815561072    4.3168069485    1.8711944908
C        0.2957990447    3.3411967837    0.9055365579
O       -1.3891468070    5.9107196958    2.8911224625
O        0.4363552352    0.0367508379   -1.7095312737
C        0.6837646602   -1.3599975406   -1.5808729434
H       -0.9001483490    1.1664074576    2.0275308655
H       -1.7056911202   -0.4170669869    2.0681621651
H       -2.3474693738    0.9030962307    1.0683446692
H        0.1146771538    2.2257410086   -1.7523496254
H       -2.7515994809    3.3183887259   -0.5911052198
H       -3.1686079795    5.0810888177    1.1178488508
H        0.8765263803    4.5897788845    2.5639274909
H        1.2611512097    2.8344671037    0.8479357721
H        1.2298376664   -1.6437871490   -2.4853987373
H       -0.2524068595   -1.9228344239   -1.5068994438
H        1.2822991010   -1.5752662861   -0.6899778594
24   
torsion grid (180,)
C       -1.4906098060    0.3639319553    1.3898427485
N       -0.5831333844   -0.1334318244    0.3634445103
C       -0.2752041953    0.6040515792   -0.6331744520
N       -0.6057586368    1.9028757922   -0.9592803243
C       -0.7669106612    2.9487048716    0.0253477447
C       -1.9823384130    3.6450653046    0.1321110718
C       -2.1580443538    4.6563018184    1.0688810897
C       -1.1141337590    5.0536504501    1.9976890203
C        0.1199412544    4.3005480321    1.8506935159
C        0.2789584192    3.3012063646    0.8984479329
O       -1.2670269615    5.9738946129    2.8623699460
O        0.4965371549    0.0747118125   -1.6579437837
C        0.7811828480   -1.3177235654   -1.5536797174
H       -1.0263067857    1.1210555113    2.0325072966
H       -1.7931724704   -0.4825887839    2.0187601041
H       -2.3965118869    0.8231469035    0.9728386339
H       -0.1821478407    2.1814232666   -1.8388387884
H       -2.7996968674    3.3648129636   -0.5337322041
H       -3.1080576387    5.1847294644    1.1363884054
H        0.9372819654    4.5523339643    2.5252068214
H        1.2234952776    2.7587363063    0.8295191823
H        1.3503224696   -1.5678901518   -2.4538122881
H       -0.1401926565   -1.9076138196   -1.5068971770
H        1.3703588200   -1.5333836877   -0.6569636858
