21   
torsion grid (-165,)
C        1.1267127260   -4.6846425247    1.1759885974
C        1.4333124389   -3.4723903908    2.0756758842
C        0.6710238439   -3.5817304438    3.4124335214
C        1.0542184723   -2.1970940498    1.3610018473
C        1.8464470314   -1.1943707012    0.9454327540
C        1.2666175769    0.0097674954    0.2383893331
C        3.3458337504   -1.1466307374    1.1221807959
H        1.7169426722   -4.6512937336    0.2545274550
H        1.3474862414   -5.6266003418    1.6924753064
H        0.0668456369   -4.6983058839    0.8956398622
H        2.5056329293   -3.4672859184    2.2931301372
H        0.6629857780   -2.6254842358    3.9450108145
H        1.1056906030   -4.3505210605    4.0604644495
H       -0.3769180473   -3.8531254305    3.2327630626
H       -0.0166504572   -2.1032126026    1.1622981711
H        1.4954612221    0.9343165769    0.7849112020
H        0.1804916817   -0.0633158656    0.1331848042
H        1.7000690114    0.1235831138   -0.7641039107
H        3.8441070422   -1.0621555547    0.1476701376
H        3.7507516822   -2.0235830985    1.6299671922
H        3.6368195390   -0.2587129922    1.6984727008
21   
torsion grid (-150,)
C        1.0833482163   -4.6615048125    1.0985399633
C        1.3689460481   -3.4681674269    2.0306242907
C        0.5873666696   -3.6124329372    3.3594019349
C        0.9887767024   -2.1831994571    1.3331766749
C        1.7840180088   -1.1881854542    0.9051681984
C        1.2041725050    0.0264166288    0.2163778880
C        3.2874732460   -1.1606661653    1.0487896181
H        1.6892997965   -4.6054351310    0.1883815173
H        1.2987551628   -5.6141885179    1.5976542469
H        0.0283886976   -4.6716427555    0.8005871812
H        2.4385734197   -3.4568068370    2.2582514735
H        0.3353187745   -2.6361894846    3.7846943323
H        1.1475674475   -4.1928348525    4.0994429296
H       -0.3650675018   -4.1294285773    3.1887605109
H       -0.0847311732   -2.0764350635    1.1564944938
H        1.4542626173    0.9452383289    0.7632826136
H        0.1153979342   -0.0337937381    0.1322753106
H        1.6189064606    0.1410378412   -0.7939199690
H        3.7651268199   -1.0872180481    0.0630971880
H        3.6912317360   -2.0415867269    1.5506499783
H        3.6038029845   -0.2748465885    1.6148059262
21   
torsion grid (-135,)
C        1.2588916413   -4.8748472705    1.2416291165
C        1.5849023713   -3.6777004265    2.1556320163
C        0.8229871129   -3.7866602754    3.5063493998
C        1.2369916004   -2.3899412293    1.4472558634
C        2.0543653051   -1.4081430403    1.0303481569
C        1.5041285430   -0.1874732079    0.3279936153
C        3.5551755991   -1.4006808670    1.2011940275
H        1.8418521123   -4.8348024160    0.3156436286
H        1.4756455572   -5.8249139706    1.7446139225
H        0.1963755280   -4.8749329711    0.9709359932
H        2.6581967234   -3.6964141186    2.3624844264
H        0.3715905820   -2.8318785023    3.7921130376
H        1.4815889490   -4.1111386297    4.3179471621
H        0.0051158553   -4.5132960468    3.4383998767
H        0.1682906560   -2.2665400381    1.2533126405
H        1.7573663393    0.7293583309    0.8767856620
H        0.4162956804   -0.2325706332    0.2244793284
H        1.9384025039   -0.0816667209   -0.6750284071
H        4.0519825237   -1.3395923684    0.2241609887
H        3.9375523668   -2.2837834053    1.7158094999
H        3.8729938396   -0.5158930822    1.7679853844
21   
torsion grid (-120,)
C        0.9165627321   -4.8150357976    1.1280628007
C        1.3192305555   -3.6304178379    2.0276155812
C        0.6385051898   -3.7291153538    3.4239744693
C        0.9814033562   -2.3240301661    1.3512397753
C        1.8062023308   -1.3378406986    0.9597373843
C        1.2649055499   -0.0957558526    0.2887318124
C        3.3067180248   -1.3441369392    1.1328117819
H        1.4288928326   -4.7680548907    0.1614370281
H        1.1665055467   -5.7699247773    1.6049022689
H       -0.1634128176   -4.8096417115    0.9365888400
H        2.4014281661   -3.6894766648    2.1710908930
H        0.0046132953   -2.8598951726    3.6244970671
H        1.3820830659   -3.7724149767    4.2262198949
H        0.0124073420   -4.6238541156    3.5071890123
H       -0.0866908631   -2.1863922263    1.1638419092
H        1.5221271088    0.8047200249    0.8621711375
H        0.1771350722   -0.1316439704    0.1811904573
H        1.7026276609    0.0338022343   -0.7099898101
H        3.8059737674   -1.2623358705    0.1585431729
H        3.6825600007   -2.2415235028    1.6271463151
H        3.6285310434   -0.4753239840    1.7215888170
21   
torsion grid (-105,)
C        0.9687184511   -4.8799699170    1.1512295549
C        1.4137087495   -3.7026156378    2.0400473873
C        0.7611805034   -3.7816473956    3.4467538774
C        1.1082074222   -2.3831459867    1.3759492176
C        1.9538819612   -1.4005286140    1.0216543431
C        1.4438027870   -0.1415247268    0.3578589758
C        3.4491210127   -1.4269078183    1.2335959685
H        1.4447673391   -4.8318433358    0.1662786319
H        1.2318287496   -5.8372063567    1.6153179043
H       -0.1177824137   -4.8697913468    0.9992092616
H        2.4959029689   -3.7987695407    2.1669589206
H       -0.0444343095   -3.0479499665    3.5554716986
H        1.4924481581   -3.5435744503    4.2266641007
H        0.3589285294   -4.7776046271    3.6587989475
H        0.0464473860   -2.2288833929    1.1667868822
H        1.6954766859    0.7463011868    0.9530208761
H        0.3589539137   -0.1635092635    0.2211629135
H        1.9092685805   -0.0004247183   -0.6266380965
H        3.9749099663   -1.3354740442    0.2742518025
H        3.8015519907   -2.3359973391    1.7237890915
H        3.7645156959   -0.5710535806    1.8443608759
21   
torsion grid (-90,)
C        1.1104220162   -5.1330666897    1.3614353619
C        1.6096524941   -3.9645487088    2.2318306597
C        0.9897053251   -4.0177057474    3.6476639636
C        1.3249638434   -2.6374141518    1.5741833441
C        2.1825396399   -1.6534324661    1.2539970756
C        1.6937957162   -0.3829144534    0.5963734087
C        3.6719393185   -1.6895240074    1.5026931798
H        1.5624513393   -5.1028598047    0.3645348682
H        1.3591564334   -6.0948398220    1.8237499959
H        0.0210633390   -5.0946158806    1.2361586732
H        2.6914879173   -4.0921148319    2.3383760247
H        0.0485661269   -3.4577887932    3.6887557478
H        1.6564398197   -3.5413652329    4.3749187463
H        0.8067135773   -5.0461543616    3.9765867262
H        0.2687084924   -2.4752167233    1.3442107676
H        1.9339837844    0.4950349320    1.2106081464
H        0.6125613586   -0.3984796137    0.4327811265
H        2.1839628608   -0.2293653551   -0.3741671225
H        4.2223158333   -1.5814421595    0.5590308457
H        4.0085881943   -2.6090191840    1.9844811844
H        3.9743172088   -0.8468113086    2.1378257087
21   
torsion grid (-75,)
C        1.0031627229   -5.4008959259    1.5872240917
C        1.4950479521   -4.2402854813    2.4722511101
C        0.8885996348   -4.3304161855    3.8867366001
C        1.1695379692   -2.9094290476    1.8407029086
C        2.0033173205   -1.9176519340    1.4838329538
C        1.4735759439   -0.6469272831    0.8589737169
C        3.5037564769   -1.9450099676    1.6552653159
H        1.4491765462   -5.3508755142    0.5885420131
H        1.2624698210   -6.3681291475    2.0325376380
H       -0.0870175212   -5.3695053702    1.4687050313
H        2.5804980022   -4.3444752985    2.5695828125
H       -0.1640426415   -4.0233130712    3.8820513204
H        1.4121935099   -3.6580945067    4.5748938534
H        0.9516080763   -5.3488151780    4.2861725255
H        0.1023849340   -2.7537329480    1.6623406133
H        1.7401366007    0.2295187096    1.4644213150
H        0.3854418299   -0.6683216488    0.7515637532
H        1.9119252975   -0.4856766598   -0.1348276508
H        4.0034512079   -1.8251226022    0.6851803007
H        3.8713685831   -2.8661292778    2.1105341953
H        3.8332558291   -1.1053511393    2.2809175188
21   
torsion grid (-60,)
C        0.9826917258   -5.0964100430    1.3235321344
C        1.4507382139   -3.9485733706    2.2376770068
C        0.7820214420   -4.0479623496    3.6215552988
C        1.1457545906   -2.6145530581    1.6007002329
C        1.9964963646   -1.6463841044    1.2199377620
C        1.4863693879   -0.3693237711    0.5916220315
C        3.4988854366   -1.7090113625    1.3635210886
H        1.4868740003   -5.0570145007    0.3525435414
H        1.1891475260   -6.0716640875    1.7798121514
H       -0.0972820031   -5.0343005666    1.1429051889
H        2.5312526960   -4.0510276076    2.3794319915
H       -0.3095892981   -3.9904087726    3.5318195379
H        1.1099017168   -3.2359023158    4.2783755766
H        1.0240697770   -5.0014714256    4.1054923996
H        0.0798858114   -2.4365143725    1.4358640163
H        1.7864542637    0.5064768519    1.1821583503
H        0.3961204983   -0.3645383103    0.5056897262
H        1.9088532689   -0.2293669842   -0.4122423283
H        3.9823943336   -1.6102560338    0.3829135328
H        3.8526834253   -2.6350986763    1.8196173229
H        3.8613113419   -0.8723308693    1.9748423813
21   
torsion grid (-45,)
C        1.1055429663   -5.0619557047    1.3935856577
C        1.5670984997   -3.9301404631    2.3309665013
C        0.8505639976   -4.0293010409    3.6936198746
C        1.2912766432   -2.5909141821    1.6894738579
C        2.1640985650   -1.6538867662    1.2820209889
C        1.6819955704   -0.3653649073    0.6548527449
C        3.6665071629   -1.7652301929    1.3921183957
H        1.6600171928   -5.0429145677    0.4498078015
H        1.2505650005   -6.0446164752    1.8584969011
H        0.0396584205   -4.9576252308    1.1588620740
H        2.6418794007   -4.0412849472    2.5026979748
H       -0.2214030351   -4.2170051025    3.5587542507
H        0.9781785458   -3.1182850712    4.2857419656
H        1.2450087744   -4.8717145678    4.2745399974
H        0.2283884397   -2.3808774446    1.5440452505
H        2.0262216904    0.5045067633    1.2299163980
H        0.5906990591   -0.3241346846    0.5960974057
H        2.0834830568   -0.2478613361   -0.3604509587
H        4.1304081067   -1.6853025577    0.4004011039
H        4.0001178222   -2.7014300822    1.8428027152
H        4.0703080293   -0.9392288970    1.9920067405
21   
torsion grid (-30,)
C        1.1487561203   -5.0381501492    1.3960203937
C        1.5983558905   -3.9238631684    2.3605202460
C        0.8397903329   -4.0282478597    3.7062103421
C        1.3559949293   -2.5767882241    1.7208430737
C        2.2528967943   -1.6668388646    1.3045300286
C        1.8044757004   -0.3660181360    0.6778654113
C        3.7521608121   -1.8233665507    1.4024107124
H        1.7333126323   -5.0185347308    0.4705213439
H        1.2625491796   -6.0282417826    1.8542421995
H        0.0927558096   -4.9123595010    1.1299214427
H        2.6669780765   -4.0472921856    2.5568405864
H       -0.1595800760   -4.4555124413    3.5643641483
H        0.7473597016   -3.0580567175    4.2022024940
H        1.3644661120   -4.7052038290    4.3907345938
H        0.2986594227   -2.3367836519    1.5816612095
H        2.1772443410    0.4945929149    1.2490852995
H        0.7144671491   -0.2933338802    0.6256569304
H        2.2028187846   -0.2619764736   -0.3401515649
H        4.2087712217   -1.7694963728    0.4055364912
H        4.0608529202   -2.7645511933    1.8604715689
H        4.1872938424   -1.0036603262    1.9888130215
21   
torsion grid (-15,)
C        0.6798387177   -5.9413029744    1.8746076303
C        0.8834647755   -4.7279232640    2.8024144290
C        0.0674981016   -4.8911447374    4.1156181168
C        0.4848187423   -3.4638354654    2.0782864797
C        1.2517301520   -2.4227248514    1.7124530061
C        0.6558523161   -1.2392947225    0.9840289575
C        2.7358697379   -2.3086260293    1.9693463972
H        1.3014304793   -5.8605572930    0.9768425646
H        0.9352486828   -6.8764666167    2.3873466624
H       -0.3666085876   -6.0106650771    1.5547733757
H        1.9445949809   -4.6764333589    3.0597066759
H       -0.6849862557   -5.6820709111    4.0235737631
H       -0.4370077878   -3.9640559385    4.4017528412
H        0.7198292469   -5.1788349820    4.9474109085
H       -0.5773724401   -3.4156138107    1.8246280499
H        0.8106226837   -0.3109270639    1.5497708702
H       -0.4182060324   -1.3615688899    0.8180056780
H        1.1379111053   -1.0948259776    0.0080155372
H        3.2821188480   -2.2050648848    1.0227523154
H        3.1509787457   -3.1654366060    2.5027199321
H        2.9559542852   -1.4072321572    2.5560154824
21   
torsion grid (0,)
C        0.6413657645   -5.9432060661    1.8512226150
C        0.8856557395   -4.7253264005    2.7631555008
C        0.1154739661   -4.8678543011    4.1083477151
C        0.4978131813   -3.4534129295    2.0489186142
C        1.2695174023   -2.4070860828    1.7086271204
C        0.6838537453   -1.2150682916    0.9860405663
C        2.7487975623   -2.2937452832    1.9922172934
H        1.2166955254   -5.8625040654    0.9230307036
H        0.9292473535   -6.8727913079    2.3558373949
H       -0.4192448322   -6.0230007462    1.5832914012
H        1.9560288097   -4.6990860783    2.9842655626
H       -0.4520160556   -5.8037433723    4.1511823765
H       -0.5969104983   -4.0492413053    4.2504917757
H        0.7977002864   -4.8533971265    4.9640293913
H       -0.5608703598   -3.4015752606    1.7816872691
H        0.8260353357   -0.2942759243    1.5672268624
H       -0.3866794703   -1.3374727248    0.7987560256
H        1.1832816022   -1.0561184829    0.0210865872
H        3.3113981473   -2.1778806382    1.0566942895
H        3.1559791724   -3.1559204513    2.5230464608
H        2.9565721330   -1.3990800366    2.5934333519
21   
torsion grid (15,)
C        0.5329080555   -6.0104832114    1.8122277354
C        0.8237951845   -4.7905342876    2.7070925470
C        0.0922864645   -4.9073282788    4.0715660953
C        0.4556022514   -3.5079416257    2.0034161369
C        1.2407418968   -2.4657352409    1.6816997079
C        0.6731085296   -1.2597464888    0.9680527696
C        2.7183032201   -2.3702709620    1.9800687924
H        1.0660305037   -5.9352765820    0.8587385977
H        0.8413321916   -6.9376608440    2.3082263030
H       -0.5388329144   -6.0900317907    1.5912112823
H        1.9002573739   -4.7959918433    2.9021215326
H       -0.2678738096   -5.9263378779    4.2503267091
H       -0.7915169534   -4.2599068921    4.0963950126
H        0.7352138236   -4.6068121615    4.9040071792
H       -0.6007061360   -3.4412753843    1.7301078355
H        0.8185963964   -0.3474021745    1.5615730091
H       -0.3967085898   -1.3696886212    0.7693938111
H        1.1832246843   -1.0942924766    0.0098248116
H        3.2907421411   -2.2483773413    1.0513075727
H        3.1119781492   -3.2425755499    2.5045166405
H        2.9286922262   -1.4849196068    2.5939931162
21   
torsion grid (30,)
C        0.5244294332   -5.9940872266    1.8462243670
C        0.8541131716   -4.7788825257    2.7331521408
C        0.1536324647   -4.8866573574    4.1075531857
C        0.4861675318   -3.4883092716    2.0446116066
C        1.2680496873   -2.4352823400    1.7513352225
C        0.7014769090   -1.2201801644    1.0526252768
C        2.7410393970   -2.3360731119    2.0705771755
H        1.0320767406   -5.9241321738    0.8785831853
H        0.8356961160   -6.9252415215    2.3326377699
H       -0.5537407879   -6.0615554948    1.6539124829
H        1.9345834305   -4.8012320983    2.9074621994
H        0.0204817075   -5.9320072671    4.4081807822
H       -0.8515259156   -4.4501466244    4.0610718322
H        0.7056548470   -4.3515080769    4.8858158543
H       -0.5677186334   -3.4229349981    1.7617955057
H        0.8335112741   -0.3178803901    1.6643351099
H       -0.3650488283   -1.3333183303    0.8386524316
H        1.2223478763   -1.0340492353    0.1040191261
H        3.3245316640   -2.1897833074    1.1522856495
H        3.1340084978   -3.2167693342    2.5813205009
H        2.9369599168   -1.4629181419    2.7063610567
21   
torsion grid (45,)
C        0.5270308048   -6.0281624715    1.8774465642
C        0.8543364655   -4.8275472454    2.7847122053
C        0.1283515227   -4.9486850775    4.1391054788
C        0.4950816053   -3.5281162235    2.1073843675
C        1.2886498861   -2.4879432938    1.8001386093
C        0.7282848098   -1.2607165706    1.1177989799
C        2.7703230710   -2.4165091121    2.0848955334
H        1.0561196631   -5.9548648690    0.9217435098
H        0.8129025672   -6.9704118700    2.3585924508
H       -0.5475945573   -6.0758298549    1.6618257700
H        1.9311119347   -4.8533152589    2.9811141370
H        0.2134148009   -5.9636213678    4.5444155041
H       -0.9423470155   -4.7404308905    4.0214246256
H        0.5255389972   -4.2373048292    4.8698092215
H       -0.5630058563   -3.4438691624    1.8461821858
H        0.8915522798   -0.3628040599    1.7284571122
H       -0.3449718743   -1.3535009391    0.9292425565
H        1.2298050072   -1.0815337220    0.1575163228
H        3.3339081467   -2.2741831002    1.1536646533
H        3.1599804761   -3.3075514925    2.5799385889
H        2.9970813877   -1.5512473433    2.7212789754
21   
torsion grid (60,)
C        0.9304156761   -5.4890212279    1.7545751444
C        1.1677448817   -4.2439401266    2.6296975275
C        0.4053521880   -4.3621711150    3.9627543009
C        0.7452094373   -2.9972556824    1.8910403600
C        1.4913050800   -1.9444278691    1.5155772163
C        0.8728249475   -0.7812901629    0.7736280547
C        2.9723166732   -1.7974080490    1.7738284138
H        1.5043788384   -5.4316053379    0.8240622797
H        1.2227616031   -6.4034247023    2.2840616812
H       -0.1296597726   -5.5815296293    1.4890771258
H        2.2368541729   -4.1924616783    2.8586437988
H        0.7354534900   -5.2421583367    4.5270245582
H       -0.6732514901   -4.4582532171    3.7892634410
H        0.5664077641   -3.4771947322    4.5869950588
H       -0.3176640554   -2.9726312676    1.6367994948
H        1.0073519326    0.1559596963    1.3297538967
H       -0.1981037251   -0.9273319524    0.6067961774
H        1.3542499981   -0.6374947559   -0.2027822376
H        3.5174292284   -1.6853308816    0.8275634407
H        3.4048057195   -2.6429107351    2.3113350575
H        3.1719570323   -0.8892830130    2.3573957463
21   
torsion grid (75,)
C        0.9426485452   -5.4763752539    1.7586267786
C        1.1501178542   -4.2517791942    2.6703757085
C        0.3475332480   -4.4062642410    3.9789793845
C        0.7300483843   -2.9970422832    1.9425224633
C        1.4864609839   -1.9628259751    1.5374740778
C        0.8701403479   -0.7882230143    0.8119433406
C        2.9786169524   -1.8501736467    1.7437407390
H        1.5601652753   -5.4063975735    0.8573112647
H        1.1990580932   -6.4061176625    2.2807666373
H       -0.1048716409   -5.5486186304    1.4431004573
H        2.2114034338   -4.1900444515    2.9287712585
H        0.8274528214   -5.1261545930    4.6516863087
H       -0.6771468466   -4.7408795813    3.7809802408
H        0.2915087131   -3.4530173449    4.5153808603
H       -0.3394023505   -2.9510697266    1.7208200694
H        1.0472313260    0.1479445580    1.3579290688
H       -0.2093711212   -0.9088060653    0.6846333072
H        1.3191502254   -0.6603954717   -0.1819815949
H        3.4923429611   -1.7511954571    0.7786541406
H        3.4099898735   -2.7059753714    2.2656697130
H        3.2203310885   -0.9469743426    2.3190387352
21   
torsion grid (90,)
C        1.0070371463   -5.3920290339    1.7781128463
C        1.2205656252   -4.1807863821    2.7067261665
C        0.3968169510   -4.3371861515    4.0085539920
C        0.8268583827   -2.9155863354    1.9812469324
C        1.6072802751   -1.9028578984    1.5677154623
C        1.0165199848   -0.7132840638    0.8453493253
C        3.1037400793   -1.8304390734    1.7606485604
H        1.6417639274   -5.3247464374    0.8885646685
H        1.2361750777   -6.3320453936    2.2947827268
H       -0.0360596588   -5.4401577159    1.4441779303
H        2.2797954128   -4.1337814960    2.9741474921
H        0.9740086539   -4.8543522684    4.7827405097
H       -0.5341436510   -4.8875233104    3.8348858052
H        0.1332152493   -3.3580991895    4.4223627453
H       -0.2427388991   -2.8420437532    1.7680116612
H        1.2220674227    0.2184856535    1.3889069515
H       -0.0667033375   -0.8057257456    0.7261445312
H        1.4612488792   -0.5981999971   -0.1520598975
H        3.6117709624   -1.7545074142    0.7904544604
H        3.5154629701   -2.6936797148    2.2862355701
H        3.3758147644   -0.9295281904    2.3258625495
21   
torsion grid (105,)
C        1.1139622146   -5.4648071626    1.7836163085
C        1.3644509846   -4.2527712708    2.7020470529
C        0.5872400547   -4.4008780772    4.0402729996
C        0.9643906356   -2.9839129942    1.9874219150
C        1.7388302178   -1.9622430602    1.5845283691
C        1.1403285261   -0.7699689650    0.8729449558
C        3.2342363805   -1.8798635309    1.7812938305
H        1.7107601214   -5.3966892186    0.8681552591
H        1.3678938408   -6.4028779685    2.2916805038
H        0.0577807341   -5.5170979217    1.4938001637
H        2.4336743406   -4.2184039963    2.9267921856
H        1.2581421678   -4.6687152131    4.8630668993
H       -0.1950658749   -5.1642917615    3.9736919653
H        0.1068543670   -3.4594248262    4.3249997289
H       -0.1057030142   -2.9139277081    1.7755331800
H        1.3385162702    0.1579512883    1.4257389879
H        0.0579525180   -0.8690193930    0.7513759191
H        1.5854090510   -0.6420137327   -0.1227300625
H        3.7439295891   -1.7894768284    0.8132250460
H        3.6519414031   -2.7448236706    2.2992610173
H        3.4972670500   -0.9826660476    2.3566221091
21   
torsion grid (120,)
C        0.7477629591   -5.4620751574    1.5822955938
C        1.0146925997   -4.2499254900    2.4956185712
C        0.2882506015   -4.4066018351    3.8632901917
C        0.5980040182   -2.9749236122    1.8033853109
C        1.3557155069   -1.9283780833    1.4336448045
C        0.7414957272   -0.7344021069    0.7385408045
C        2.8457806572   -1.8171941418    1.6547633824
H        1.2929290441   -5.3709904608    0.6370250665
H        1.0563375155   -6.3940135376    2.0701285046
H       -0.3204004941   -5.5454100797    1.3475742269
H        2.0913456179   -4.2195152490    2.6830820792
H        0.9992546784   -4.4029752703    4.6954815556
H       -0.2701603993   -5.3475378067    3.9164254873
H       -0.4220318007   -3.5928696959    4.0384142709
H       -0.4707807158   -2.9217972183    1.5803117082
H        0.9089758947    0.1851965713    1.3148432170
H       -0.3360815306   -0.8554252643    0.5961372567
H        1.2001411810   -0.5742877732   -0.2462699128
H        3.3687828720   -1.7043807672    0.6961583444
H        3.2733619759   -2.6790931241    2.1697765267
H        3.0802481480   -0.9216476903    2.2447163667
21   
torsion grid (135,)
C        0.6620142758   -5.5013829556    1.5511609862
C        0.9736160606   -4.2823526172    2.4403924528
C        0.2903901064   -4.4085742928    3.8291301978
C        0.5705774419   -3.0008262150    1.7537326282
C        1.3364778412   -1.9542020742    1.4014536981
C        0.7339790040   -0.7504378594    0.7130823876
C        2.8245335638   -1.8515009990    1.6390978044
H        1.1626358398   -5.4187751283    0.5807864446
H        0.9936129298   -6.4280663196    2.0330138087
H       -0.4158536922   -5.5881475456    1.3658409787
H        2.0558887604   -4.2788634076    2.5990975632
H        0.9794569460   -4.1422541921    4.6367551018
H       -0.0303856998   -5.4395574220    4.0182040340
H       -0.5942880556   -3.7691611443    3.9079831324
H       -0.4962329399   -2.9394964641    1.5233192978
H        0.8993667898    0.1620948625    1.3010811187
H       -0.3425838260   -0.8654852665    0.5586629329
H        1.2032620065   -0.5816145005   -0.2652189684
H        3.3576233676   -1.7245292812    0.6878732551
H        3.2440109656   -2.7229097339    2.1447097429
H        3.0554431139   -0.9664460434    2.2460432405
21   
torsion grid (150,)
C        0.6844944732   -5.4751460746    1.5102577780
C        1.0468007069   -4.2728325060    2.4023306667
C        0.3791499333   -4.3874526404    3.7927206539
C        0.6761418297   -2.9718798718    1.7347022642
C        1.4639832197   -1.9304411318    1.4170252929
C        0.8918398640   -0.7030174154    0.7448380474
C        2.9492767275   -1.8566831981    1.6814831590
H        1.1669805530   -5.3974713870    0.5303793670
H        1.0011701788   -6.4142626341    1.9775599761
H       -0.3988415812   -5.5324451412    1.3459204874
H        2.1303685233   -4.3074407343    2.5523889746
H        0.9874132898   -3.9037526513    4.5636854626
H        0.2737162422   -5.4384993670    4.0875348982
H       -0.6199180459   -3.9390850597    3.8011937908
H       -0.3859327180   -2.8878880024    1.4899812299
H        1.0612893662    0.1941936537    1.3548153982
H       -0.1836096049   -0.7978153365    0.5702292697
H        1.3800984905   -0.5209962353   -0.2217431292
H        3.5003344595   -1.7150942809    0.7426377693
H        3.3467490168   -2.7462939267    2.1729438679
H        3.1831264325   -0.9901461776    2.3134891185
21   
torsion grid (165,)
C        0.8102862474   -5.3785126690    1.5339354321
C        1.1366449547   -4.1731367860    2.4355691636
C        0.4347322726   -4.3016776436    3.8021363097
C        0.7525444235   -2.8792129371    1.7615424837
C        1.5314046488   -1.8345836131    1.4324560837
C        0.9473691594   -0.6153864363    0.7555320729
C        3.0179065677   -1.7496847458    1.6865989697
H        1.3229194237   -5.2986361071    0.5697962341
H        1.1163857631   -6.3166077655    2.0107583747
H       -0.2669350843   -5.4405169046    1.3357649800
H        2.2162779750   -4.1862592680    2.6163295564
H        0.8618529563   -3.6046790643    4.5304288359
H        0.5535066048   -5.3142120314    4.2062579404
H       -0.6393350547   -4.0998394384    3.7185129266
H       -0.3110994708   -2.8048210791    1.5207197846
H        1.1165100039    0.2871263021    1.3577492999
H       -0.1288428668   -0.7173386993    0.5899664969
H        1.4273004908   -0.4377353138   -0.2160124862
H        3.5610144085   -1.6052741017    0.7435822527
H        3.4254061201   -2.6359142271    2.1759191596
H        3.2502487079   -0.8806312969    2.3157638867
21   
torsion grid (180,)
C        0.9820523066   -4.7620552268    1.0543514408
C        1.2836033629   -3.5362762970    1.9367598608
C        0.5619547117   -3.6505277779    3.2925521310
C        0.8737357357   -2.2677389004    1.2286611113
C        1.6369162919   -1.2298030781    0.8461583113
C        1.0287869706   -0.0392750605    0.1399453649
C        3.1283300304   -1.1264603074    1.0622532223
H        1.5261264167   -4.7078379248    0.1058706375
H        1.2659623702   -5.6913990414    1.5619521832
H       -0.0884623361   -4.8215625748    0.8234800605
H        2.3607703917   -3.5186461416    2.1304931985
H        0.7718884470   -2.7819779386    3.9251142988
H        0.8730134100   -4.5541504185    3.8295000089
H       -0.5244396918   -3.7038872655    3.1509506879
H       -0.1951665645   -2.2106998904    1.0069698651
H        1.2052925160    0.8853919465    0.7053143131
H       -0.0502018918   -0.1538904661    0.0032282330
H        1.4848544794    0.1064608190   -0.8482803095
H        3.6482266191   -1.0143500283    0.1019102446
H        3.5532880464   -1.9914178650    1.5741985821
H        3.3696383097   -0.2331449191    1.6528948003
