
  -OEChem-12122420533D

 16 16  0     1  0  0  0  0  0999 V2000
   -0.6106    1.0666   -3.0196 C   0  0  0  0  0  0  0  0  0  0  0  0
    0.1649    0.7472   -1.8098 C   0  0  2  0  0  0  0  0  0  0  0  0
   -0.4344    0.0273   -0.6268 C   0  0  0  0  0  0  0  0  0  0  0  0
    0.1027    0.5726    0.7034 C   0  0  0  0  0  0  0  0  0  0  0  0
   -0.4919   -0.1200    1.9149 C   0  0  0  0  0  0  0  0  0  0  0  0
   -0.3106    2.0899   -2.0499 O   0  0  0  0  0  0  0  0  0  0  0  0
   -0.1584   -1.4901    1.9043 F   0  0  0  0  0  0  0  0  0  0  0  0
   -0.1042    1.1764   -3.9782 H   0  0  0  0  0  0  0  0  0  0  0  0
   -1.6602    0.7766   -3.0709 H   0  0  0  0  0  0  0  0  0  0  0  0
    1.2475    0.6529   -1.9197 H   0  0  0  0  0  0  0  0  0  0  0  0
   -1.5251    0.1357   -0.6578 H   0  0  0  0  0  0  0  0  0  0  0  0
   -0.2105   -1.0428   -0.7064 H   0  0  0  0  0  0  0  0  0  0  0  0
    1.1945    0.4735    0.7396 H   0  0  0  0  0  0  0  0  0  0  0  0
   -0.1243    1.6432    0.7778 H   0  0  0  0  0  0  0  0  0  0  0  0
   -1.5859   -0.0594    1.9204 H   0  0  0  0  0  0  0  0  0  0  0  0
   -0.1023    0.2961    2.8494 H   0  0  0  0  0  0  0  0  0  0  0  0
  1  2  1  0  0  0  0
  1  6  1  0  0  0  0
  1  8  1  0  0  0  0
  1  9  1  0  0  0  0
  2  3  1  0  0  0  0
  2  6  1  0  0  0  0
  2 10  1  0  0  0  0
  3  4  1  0  0  0  0
  3 11  1  0  0  0  0
  3 12  1  0  0  0  0
  4  5  1  0  0  0  0
  4 13  1  0  0  0  0
  4 14  1  0  0  0  0
  5  7  1  0  0  0  0
  5 15  1  0  0  0  0
  5 16  1  0  0  0  0
M  END
$$$$
