
  -OEChem-12122420533D

 16 16  0     1  0  0  0  0  0999 V2000
    1.8302   -0.1269   -2.3248 C   0  0  0  0  0  0  0  0  0  0  0  0
    0.4824    0.2331   -1.8502 C   0  0  2  0  0  0  0  0  0  0  0  0
   -0.1250   -0.3928   -0.6173 C   0  0  0  0  0  0  0  0  0  0  0  0
    0.1226    0.4600    0.6342 C   0  0  0  0  0  0  0  0  0  0  0  0
   -0.4684   -0.1455    1.8948 C   0  0  0  0  0  0  0  0  0  0  0  0
    0.6549   -0.6178   -2.9981 O   0  0  0  0  0  0  0  0  0  0  0  0
    0.1417   -1.3845    2.1688 F   0  0  0  0  0  0  0  0  0  0  0  0
    2.4207    0.5924   -2.8919 H   0  0  0  0  0  0  0  0  0  0  0  0
    2.3985   -0.8835   -1.7831 H   0  0  0  0  0  0  0  0  0  0  0  0
    0.1129    1.2294   -2.1047 H   0  0  0  0  0  0  0  0  0  0  0  0
   -1.2042   -0.5179   -0.7749 H   0  0  0  0  0  0  0  0  0  0  0  0
    0.2955   -1.3933   -0.4790 H   0  0  0  0  0  0  0  0  0  0  0  0
    1.1989    0.6071    0.7830 H   0  0  0  0  0  0  0  0  0  0  0  0
   -0.3188    1.4581    0.5081 H   0  0  0  0  0  0  0  0  0  0  0  0
   -1.5424   -0.3348    1.7882 H   0  0  0  0  0  0  0  0  0  0  0  0
   -0.2985    0.4946    2.7665 H   0  0  0  0  0  0  0  0  0  0  0  0
  1  2  1  0  0  0  0
  1  6  1  0  0  0  0
  1  8  1  0  0  0  0
  1  9  1  0  0  0  0
  2  3  1  0  0  0  0
  2  6  1  0  0  0  0
  2 10  1  0  0  0  0
  3  4  1  0  0  0  0
  3 11  1  0  0  0  0
  3 12  1  0  0  0  0
  4  5  1  0  0  0  0
  4 13  1  0  0  0  0
  4 14  1  0  0  0  0
  5  7  1  0  0  0  0
  5 15  1  0  0  0  0
  5 16  1  0  0  0  0
M  END
$$$$
