
  -OEChem-12102412493D

 21 21  0     0  0  0  0  0  0999 V2000
    1.8470   -1.0659   -0.0974 C   0  0  0  0  0  0  0  0  0  0  0  0
    0.8027   -0.3478    0.4899 C   0  0  0  0  0  0  0  0  0  0  0  0
    2.8347   -1.6329    0.7052 C   0  0  0  0  0  0  0  0  0  0  0  0
    0.7550   -0.2091    1.8777 C   0  0  0  0  0  0  0  0  0  0  0  0
    2.8035   -1.5113    2.1026 C   0  0  0  0  0  0  0  0  0  0  0  0
    1.7419   -0.7931    2.6851 C   0  0  0  0  0  0  0  0  0  0  0  0
    3.5744   -3.9506    3.1603 N   0  5  0  0  0  0  0  0  0  0  0  0
    0.0405    0.2200    4.5907 N   0  0  0  0  0  0  0  0  0  0  0  0
    4.2232   -1.8612    4.3305 O   0  0  0  0  0  0  0  0  0  0  0  0
    5.2861   -2.2677    2.0572 O   0  0  0  0  0  0  0  0  0  0  0  0
    1.4375   -1.8181    5.1685 O   0  0  0  0  0  0  0  0  0  0  0  0
    2.5228    0.5139    4.9182 O   0  0  0  0  0  0  0  0  0  0  0  0
    3.5848   -4.5023    1.7677 F   0  0  0  0  0  0  0  0  0  0  0  0
    4.1387   -2.4354    2.9767 S   0  0  0  0  0  0  0  0  0  0  0  0
    1.5947   -0.5353    4.4857 S   0  0  0  0  0  0  0  0  0  0  0  0
    1.8968   -1.1810   -1.1780 H   0  0  0  0  0  0  0  0  0  0  0  0
    0.0274    0.1087   -0.1211 H   0  0  0  0  0  0  0  0  0  0  0  0
    3.6627   -2.1789    0.2672 H   0  0  0  0  0  0  0  0  0  0  0  0
   -0.0461    0.3484    2.3450 H   0  0  0  0  0  0  0  0  0  0  0  0
   -0.5666   -0.4213    5.0993 H   0  0  0  0  0  0  0  0  0  0  0  0
    0.1753    1.0741    5.1299 H   0  0  0  0  0  0  0  0  0  0  0  0
  1  2  1  0  0  0  0
  1  3  2  0  0  0  0
  1 16  1  0  0  0  0
  2  4  2  0  0  0  0
  2 17  1  0  0  0  0
  3  5  1  0  0  0  0
  3 18  1  0  0  0  0
  4  6  1  0  0  0  0
  4 19  1  0  0  0  0
  5  6  2  0  0  0  0
  5 14  1  0  0  0  0
  6 15  1  0  0  0  0
  7 13  1  0  0  0  0
  7 14  1  0  0  0  0
  8 15  1  0  0  0  0
  8 20  1  0  0  0  0
  8 21  1  0  0  0  0
  9 14  2  0  0  0  0
 10 14  2  0  0  0  0
 11 15  2  0  0  0  0
 12 15  2  0  0  0  0
M  CHG  1   7  -1
M  END
$$$$
