
  -OEChem-12102412493D

 21 21  0     0  0  0  0  0  0999 V2000
    1.8597   -0.8399   -0.2660 C   0  0  0  0  0  0  0  0  0  0  0  0
    0.8128   -0.3140    0.4973 C   0  0  0  0  0  0  0  0  0  0  0  0
    2.9512   -1.4436    0.3587 C   0  0  0  0  0  0  0  0  0  0  0  0
    0.8701   -0.4034    1.8872 C   0  0  0  0  0  0  0  0  0  0  0  0
    3.0302   -1.5551    1.7535 C   0  0  0  0  0  0  0  0  0  0  0  0
    1.9629   -1.0259    2.5051 C   0  0  0  0  0  0  0  0  0  0  0  0
    4.1233   -3.8815    2.8243 N   0  5  0  0  0  0  0  0  0  0  0  0
    3.1562   -0.0985    4.9231 N   0  0  0  0  0  0  0  0  0  0  0  0
    4.9880   -1.5115    3.5041 O   0  0  0  0  0  0  0  0  0  0  0  0
    5.4322   -2.4579    1.2220 O   0  0  0  0  0  0  0  0  0  0  0  0
    0.6065   -0.4379    4.7021 O   0  0  0  0  0  0  0  0  0  0  0  0
    2.2020   -2.4133    4.8224 O   0  0  0  0  0  0  0  0  0  0  0  0
    2.9983    1.1965    4.3224 F   0  0  0  0  0  0  0  0  0  0  0  0
    4.5436   -2.4452    2.4043 S   0  0  0  0  0  0  0  0  0  0  0  0
    1.8613   -1.0835    4.3122 S   0  0  0  0  0  0  0  0  0  0  0  0
    1.8324   -0.7709   -1.3516 H   0  0  0  0  0  0  0  0  0  0  0  0
   -0.0370    0.1679    0.0204 H   0  0  0  0  0  0  0  0  0  0  0  0
    3.7826   -1.8379   -0.2169 H   0  0  0  0  0  0  0  0  0  0  0  0
    0.0797    0.0043    2.5076 H   0  0  0  0  0  0  0  0  0  0  0  0
    3.6263   -3.8089    3.7156 H   0  0  0  0  0  0  0  0  0  0  0  0
    4.0123   -0.4812    4.4474 H   0  0  0  0  0  0  0  0  0  0  0  0
  1  2  1  0  0  0  0
  1  3  2  0  0  0  0
  1 16  1  0  0  0  0
  2  4  2  0  0  0  0
  2 17  1  0  0  0  0
  3  5  1  0  0  0  0
  3 18  1  0  0  0  0
  4  6  1  0  0  0  0
  4 19  1  0  0  0  0
  5  6  2  0  0  0  0
  5 14  1  0  0  0  0
  6 15  1  0  0  0  0
  7 14  1  0  0  0  0
  7 20  1  0  0  0  0
  8 13  1  0  0  0  0
  8 15  1  0  0  0  0
  8 21  1  0  0  0  0
  9 14  2  0  0  0  0
 10 14  2  0  0  0  0
 11 15  2  0  0  0  0
 12 15  2  0  0  0  0
M  CHG  1   7  -1
M  END
$$$$
