
  -OEChem-12122420533D

 19 19  0     0  0  0  0  0  0999 V2000
    2.1384   -0.9171    0.0039 C   0  0  0  0  0  0  0  0  0  0  0  0
    3.1204   -1.8128    2.0622 C   0  0  0  0  0  0  0  0  0  0  0  0
    1.0337   -0.4673    0.7294 C   0  0  0  0  0  0  0  0  0  0  0  0
    2.0182   -1.3631    2.7847 C   0  0  0  0  0  0  0  0  0  0  0  0
    3.1571   -1.5819    0.6848 C   0  0  0  0  0  0  0  0  0  0  0  0
    0.9915   -0.7014    2.1045 C   0  0  0  0  0  0  0  0  0  0  0  0
   -1.1312   -1.6761    3.3521 N   0  0  0  0  0  0  0  0  0  0  0  0
    4.3279   -2.0613   -0.0831 N   0  3  0  0  0  0  0  0  0  0  0  0
    4.3364   -1.8538   -1.2992 O   0  5  0  0  0  0  0  0  0  0  0  0
    5.2200   -2.6389    0.5431 O   0  0  0  0  0  0  0  0  0  0  0  0
   -1.2667    0.6852    2.1475 O   0  0  0  0  0  0  0  0  0  0  0  0
    0.0300    0.4086    4.3353 O   0  0  0  0  0  0  0  0  0  0  0  0
   -0.4149   -0.0966    3.0445 S   0  0  0  0  0  0  0  0  0  0  0  0
   -2.2889   -1.6342    4.6819 Cl  0  0  0  0  0  0  0  0  0  0  0  0
    2.2184   -0.7571   -1.0648 H   0  0  0  0  0  0  0  0  0  0  0  0
    3.9411   -2.3308    2.5439 H   0  0  0  0  0  0  0  0  0  0  0  0
    0.2233    0.0664    0.2435 H   0  0  0  0  0  0  0  0  0  0  0  0
    1.9539   -1.5170    3.8568 H   0  0  0  0  0  0  0  0  0  0  0  0
   -1.6844   -1.9091    2.5197 H   0  0  0  0  0  0  0  0  0  0  0  0
  1  3  1  0  0  0  0
  1  5  2  0  0  0  0
  1 15  1  0  0  0  0
  2  4  2  0  0  0  0
  2  5  1  0  0  0  0
  2 16  1  0  0  0  0
  3  6  2  0  0  0  0
  3 17  1  0  0  0  0
  4  6  1  0  0  0  0
  4 18  1  0  0  0  0
  5  8  1  0  0  0  0
  6 13  1  0  0  0  0
  7 13  1  0  0  0  0
  7 14  1  0  0  0  0
  7 19  1  0  0  0  0
  8  9  1  0  0  0  0
  8 10  2  0  0  0  0
 11 13  2  0  0  0  0
 12 13  2  0  0  0  0
M  CHG  2   8   1   9  -1
M  END
$$$$
