
  -OEChem-12102412493D

 28 29  0     1  0  0  0  0  0999 V2000
   -2.6166    0.4634   -0.8364 C   0  0  0  0  0  0  0  0  0  0  0  0
   -6.2031    0.0993    0.0466 C   0  0  0  0  0  0  0  0  0  0  0  0
   -5.3446   -1.1417   -0.0388 C   0  0  0  0  0  0  0  0  0  0  0  0
    0.1835    0.1225    0.7717 C   0  0  0  0  0  0  0  0  0  0  0  0
    1.8779    1.5505   -0.0237 C   0  0  0  0  0  0  0  0  0  0  0  0
   -5.0299    0.0556   -0.9010 C   0  0  0  0  0  0  0  0  0  0  0  0
    1.1654    1.1721    1.2754 C   0  0  1  0  0  0  0  0  0  0  0  0
   -1.5002    1.4902   -0.5693 C   0  0  0  0  0  0  0  0  0  0  0  0
   -3.8717    0.8643   -0.5757 N   0  0  0  0  0  0  0  0  0  0  0  0
   -0.2342    0.6879   -0.5661 N   0  3  1  0  0  0  0  0  0  0  0  0
   -2.2875   -0.6429   -1.2784 O   0  0  0  0  0  0  0  0  0  0  0  0
    0.8558    1.4706   -1.0656 O   0  0  0  0  0  0  0  0  0  0  0  0
    0.3881    2.2312    1.8155 O   0  0  0  0  0  0  0  0  0  0  0  0
   -7.1954    0.0863   -0.3915 H   0  0  0  0  0  0  0  0  0  0  0  0
   -6.1094    0.7111    0.9395 H   0  0  0  0  0  0  0  0  0  0  0  0
   -4.6740   -1.3463    0.7892 H   0  0  0  0  0  0  0  0  0  0  0  0
   -5.7355   -2.0212   -0.5388 H   0  0  0  0  0  0  0  0  0  0  0  0
    0.6617   -0.8400    0.5905 H   0  0  0  0  0  0  0  0  0  0  0  0
   -0.6932    0.0026    1.4055 H   0  0  0  0  0  0  0  0  0  0  0  0
    2.2442    2.5775   -0.0367 H   0  0  0  0  0  0  0  0  0  0  0  0
    2.6831    0.8522   -0.2697 H   0  0  0  0  0  0  0  0  0  0  0  0
   -5.2255   -0.0185   -1.9669 H   0  0  0  0  0  0  0  0  0  0  0  0
    1.8577    0.7444    2.0080 H   0  0  0  0  0  0  0  0  0  0  0  0
   -1.5784    2.0376    0.3691 H   0  0  0  0  0  0  0  0  0  0  0  0
   -1.4138    2.1913   -1.4022 H   0  0  0  0  0  0  0  0  0  0  0  0
   -4.0265    1.8234   -0.2821 H   0  0  0  0  0  0  0  0  0  0  0  0
   -0.4197   -0.0888   -1.2335 H   0  0  0  0  0  0  0  0  0  0  0  0
    0.9608    2.8640    2.2794 H   0  0  0  0  0  0  0  0  0  0  0  0
  1  8  1  0  0  0  0
  1  9  1  0  0  0  0
  1 11  2  0  0  0  0
  2  3  1  0  0  0  0
  2  6  1  0  0  0  0
  2 14  1  0  0  0  0
  2 15  1  0  0  0  0
  3  6  1  0  0  0  0
  3 16  1  0  0  0  0
  3 17  1  0  0  0  0
  4  7  1  0  0  0  0
  4 10  1  0  0  0  0
  4 18  1  0  0  0  0
  4 19  1  0  0  0  0
  5  7  1  0  0  0  0
  5 12  1  0  0  0  0
  5 20  1  0  0  0  0
  5 21  1  0  0  0  0
  6  9  1  0  0  0  0
  6 22  1  0  0  0  0
  7 13  1  0  0  0  0
  7 23  1  0  0  0  0
  8 10  1  0  0  0  0
  8 24  1  0  0  0  0
  8 25  1  0  0  0  0
  9 26  1  0  0  0  0
 10 12  1  0  0  0  0
 10 27  1  0  0  0  0
 13 28  1  0  0  0  0
M  CHG  1  10   1
M  END
$$$$
