
  -OEChem-12122420533D

 21 21  0     0  0  0  0  0  0999 V2000
    1.2168   -1.2120   -0.1500 C   0  0  0  0  0  0  0  0  0  0  0  0
    0.1811   -0.6358    0.5882 C   0  0  0  0  0  0  0  0  0  0  0  0
    2.3191   -1.7605    0.5051 C   0  0  0  0  0  0  0  0  0  0  0  0
    0.2589   -0.6208    1.9811 C   0  0  0  0  0  0  0  0  0  0  0  0
    2.4114   -1.7675    1.9048 C   0  0  0  0  0  0  0  0  0  0  0  0
    1.3551   -1.1926    2.6373 C   0  0  0  0  0  0  0  0  0  0  0  0
    3.5062   -4.2058    2.7501 N   0  5  0  0  0  0  0  0  0  0  0  0
    2.5255   -0.1586    4.8620 N   0  0  0  0  0  0  0  0  0  0  0  0
    4.1827   -2.1355    3.9118 O   0  0  0  0  0  0  0  0  0  0  0  0
    4.9116   -2.3455    1.4996 O   0  0  0  0  0  0  0  0  0  0  0  0
    0.0222   -0.3335    4.7841 O   0  0  0  0  0  0  0  0  0  0  0  0
    1.3005   -2.4959    4.9894 O   0  0  0  0  0  0  0  0  0  0  0  0
    3.3361   -4.6988    1.3513 F   0  0  0  0  0  0  0  0  0  0  0  0
    3.9110   -2.6490    2.5449 S   0  0  0  0  0  0  0  0  0  0  0  0
    1.2136   -1.1377    4.4490 S   0  0  0  0  0  0  0  0  0  0  0  0
    1.1740   -1.2301   -1.2368 H   0  0  0  0  0  0  0  0  0  0  0  0
   -0.6789   -0.1944    0.0905 H   0  0  0  0  0  0  0  0  0  0  0  0
    3.1399   -2.1898   -0.0581 H   0  0  0  0  0  0  0  0  0  0  0  0
   -0.5240   -0.1671    2.5793 H   0  0  0  0  0  0  0  0  0  0  0  0
    2.3923    0.1222    5.8346 H   0  0  0  0  0  0  0  0  0  0  0  0
    3.3775   -0.7281    4.7434 H   0  0  0  0  0  0  0  0  0  0  0  0
  1  2  1  0  0  0  0
  1  3  2  0  0  0  0
  1 16  1  0  0  0  0
  2  4  2  0  0  0  0
  2 17  1  0  0  0  0
  3  5  1  0  0  0  0
  3 18  1  0  0  0  0
  4  6  1  0  0  0  0
  4 19  1  0  0  0  0
  5  6  2  0  0  0  0
  5 14  1  0  0  0  0
  6 15  1  0  0  0  0
  7 13  1  0  0  0  0
  7 14  1  0  0  0  0
  8 15  1  0  0  0  0
  8 20  1  0  0  0  0
  8 21  1  0  0  0  0
  9 14  2  0  0  0  0
 10 14  2  0  0  0  0
 11 15  2  0  0  0  0
 12 15  2  0  0  0  0
M  CHG  1   7  -1
M  END
$$$$
