
  -OEChem-12102412493D

 28 29  0     1  0  0  0  0  0999 V2000
   -1.9502    0.7372   -2.1122 C   0  0  0  0  0  0  0  0  0  0  0  0
   -5.6477    0.5923   -2.4077 C   0  0  0  0  0  0  0  0  0  0  0  0
   -4.8800   -0.6988   -2.2402 C   0  0  0  0  0  0  0  0  0  0  0  0
    1.1259    0.1200   -1.5605 C   0  0  0  0  0  0  0  0  0  0  0  0
    0.4609   -0.9327    0.4861 C   0  0  0  0  0  0  0  0  0  0  0  0
   -4.2390    0.4784   -2.9341 C   0  0  0  0  0  0  0  0  0  0  0  0
    1.0467   -1.2734   -0.8908 C   0  0  1  0  0  0  0  0  0  0  0  0
   -0.9508    1.7192   -1.4776 C   0  0  0  0  0  0  0  0  0  0  0  0
   -3.2003    1.2148   -2.2408 N   0  0  0  0  0  0  0  0  0  0  0  0
    0.1448    0.9897   -0.7550 N   0  3  1  0  0  0  0  0  0  0  0  0
   -1.5787   -0.3719   -2.4967 O   0  0  0  0  0  0  0  0  0  0  0  0
   -0.4649    0.1706    0.2513 O   0  0  0  0  0  0  0  0  0  0  0  0
    0.3138   -2.2135   -1.6181 O   0  0  0  0  0  0  0  0  0  0  0  0
   -6.4475    0.6394   -3.1391 H   0  0  0  0  0  0  0  0  0  0  0  0
   -5.8100    1.1961   -1.5191 H   0  0  0  0  0  0  0  0  0  0  0  0
   -4.5207   -0.9446   -1.2464 H   0  0  0  0  0  0  0  0  0  0  0  0
   -5.1429   -1.5513   -2.8571 H   0  0  0  0  0  0  0  0  0  0  0  0
    2.1064    0.5859   -1.4585 H   0  0  0  0  0  0  0  0  0  0  0  0
    0.8107    0.0925   -2.5993 H   0  0  0  0  0  0  0  0  0  0  0  0
   -0.1445   -1.7413    0.8929 H   0  0  0  0  0  0  0  0  0  0  0  0
    1.2217   -0.6125    1.2073 H   0  0  0  0  0  0  0  0  0  0  0  0
   -4.0860    0.4178   -4.0077 H   0  0  0  0  0  0  0  0  0  0  0  0
    2.0527   -1.6826   -0.7735 H   0  0  0  0  0  0  0  0  0  0  0  0
   -1.4180    2.3758   -0.7412 H   0  0  0  0  0  0  0  0  0  0  0  0
   -0.4667    2.3278   -2.2469 H   0  0  0  0  0  0  0  0  0  0  0  0
   -3.4090    2.1603   -1.9381 H   0  0  0  0  0  0  0  0  0  0  0  0
    0.6878    1.6979   -0.2455 H   0  0  0  0  0  0  0  0  0  0  0  0
   -0.5099   -1.8006   -1.9465 H   0  0  0  0  0  0  0  0  0  0  0  0
  1  8  1  0  0  0  0
  1  9  1  0  0  0  0
  1 11  2  0  0  0  0
  2  3  1  0  0  0  0
  2  6  1  0  0  0  0
  2 14  1  0  0  0  0
  2 15  1  0  0  0  0
  3  6  1  0  0  0  0
  3 16  1  0  0  0  0
  3 17  1  0  0  0  0
  4  7  1  0  0  0  0
  4 10  1  0  0  0  0
  4 18  1  0  0  0  0
  4 19  1  0  0  0  0
  5  7  1  0  0  0  0
  5 12  1  0  0  0  0
  5 20  1  0  0  0  0
  5 21  1  0  0  0  0
  6  9  1  0  0  0  0
  6 22  1  0  0  0  0
  7 13  1  0  0  0  0
  7 23  1  0  0  0  0
  8 10  1  0  0  0  0
  8 24  1  0  0  0  0
  8 25  1  0  0  0  0
  9 26  1  0  0  0  0
 10 12  1  0  0  0  0
 10 27  1  0  0  0  0
 13 28  1  0  0  0  0
M  CHG  1  10   1
M  END
$$$$
