
  -OEChem-12122420533D

 16 17  0     1  0  0  0  0  0999 V2000
   -0.1697   -0.5540    1.4495 C   0  0  0  0  0  0  0  0  0  0  0  0
    1.3389    0.7249    0.1467 C   0  0  0  0  0  0  0  0  0  0  0  0
   -0.1791   -1.1862    0.0565 C   0  0  2  0  0  0  0  0  0  0  0  0
    0.7912   -0.3573   -0.7842 C   0  0  1  0  0  0  0  0  0  0  0  0
   -0.6752   -0.3438   -1.0985 C   0  0  0  0  0  0  0  0  0  0  0  0
    0.4586    0.7775    1.3315 N   0  0  0  0  0  0  0  0  0  0  0  0
   -1.4084    0.8515   -0.8980 O   0  0  0  0  0  0  0  0  0  0  0  0
   -1.1663   -0.4513    1.8939 H   0  0  0  0  0  0  0  0  0  0  0  0
    0.4200   -1.1923    2.1195 H   0  0  0  0  0  0  0  0  0  0  0  0
    2.3574    0.4461    0.4450 H   0  0  0  0  0  0  0  0  0  0  0  0
    1.3872    1.7141   -0.3187 H   0  0  0  0  0  0  0  0  0  0  0  0
   -0.2275   -2.2692   -0.0287 H   0  0  0  0  0  0  0  0  0  0  0  0
    1.4664   -0.8208   -1.4985 H   0  0  0  0  0  0  0  0  0  0  0  0
   -0.9709   -0.8896   -1.9952 H   0  0  0  0  0  0  0  0  0  0  0  0
   -0.2825    1.4358    1.1093 H   0  0  0  0  0  0  0  0  0  0  0  0
   -2.3180    0.6024   -0.6704 H   0  0  0  0  0  0  0  0  0  0  0  0
  1  3  1  0  0  0  0
  1  6  1  0  0  0  0
  1  8  1  0  0  0  0
  1  9  1  0  0  0  0
  2  4  1  0  0  0  0
  2  6  1  0  0  0  0
  2 10  1  0  0  0  0
  2 11  1  0  0  0  0
  3  4  1  0  0  0  0
  3  5  1  0  0  0  0
  3 12  1  0  0  0  0
  4  5  1  0  0  0  0
  4 13  1  0  0  0  0
  5  7  1  0  0  0  0
  5 14  1  0  0  0  0
  6 15  1  0  0  0  0
  7 16  1  0  0  0  0
M  END
$$$$
