
  -OEChem-12102412493D

 12 12  0     0  0  0  0  0  0999 V2000
    0.0230   -1.1220   -0.4262 C   0  0  0  0  0  0  0  0  0  0  0  0
   -0.0033    1.1963    0.0982 C   0  0  0  0  0  0  0  0  0  0  0  0
    0.1018   -0.3891   -1.7610 C   0  0  0  0  0  0  0  0  0  0  0  0
    0.0901    1.1111   -1.4214 C   0  0  0  0  0  0  0  0  0  0  0  0
   -0.0343   -0.1289    0.5682 N   0  0  0  0  0  0  0  0  0  0  0  0
    0.0100   -2.3160   -0.2320 O   0  0  0  0  0  0  0  0  0  0  0  0
   -0.0434    2.1901    0.7870 O   0  0  0  0  0  0  0  0  0  0  0  0
   -0.1439   -0.5413    2.3860 Br  0  0  0  0  0  0  0  0  0  0  0  0
    1.0102   -0.7129   -2.2748 H   0  0  0  0  0  0  0  0  0  0  0  0
   -0.7480   -0.7034   -2.3719 H   0  0  0  0  0  0  0  0  0  0  0  0
   -0.7617    1.6477   -1.8461 H   0  0  0  0  0  0  0  0  0  0  0  0
    0.9957    1.6354   -1.7362 H   0  0  0  0  0  0  0  0  0  0  0  0
  1  3  1  0  0  0  0
  1  5  1  0  0  0  0
  1  6  2  0  0  0  0
  2  4  1  0  0  0  0
  2  5  1  0  0  0  0
  2  7  2  0  0  0  0
  3  4  1  0  0  0  0
  3  9  1  0  0  0  0
  3 10  1  0  0  0  0
  4 11  1  0  0  0  0
  4 12  1  0  0  0  0
  5  8  1  0  0  0  0
M  END
$$$$
