
  -OEChem-12102412493D

 10 10  0     0  0  0  0  0  0999 V2000
    1.5465    0.4825    1.5836 C   0  0  0  0  0  0  0  0  0  0  0  0
    0.2650    0.0111    1.0263 C   0  0  0  0  0  0  0  0  0  0  0  0
    1.5622    0.3566    2.9796 C   0  0  0  0  0  0  0  0  0  0  0  0
   -0.5875   -0.4344    2.0460 C   0  0  0  0  0  0  0  0  0  0  0  0
    0.2380   -0.2090    3.2311 N   0  0  0  0  0  0  0  0  0  0  0  0
    2.4080    0.6139    3.9147 O   0  5  0  0  0  0  0  0  0  0  0  0
   -1.7758   -0.9255    2.0986 O   0  5  0  0  0  0  0  0  0  0  0  0
   -0.3688   -0.6233    4.9794 Br  0  0  0  0  0  0  0  0  0  0  0  0
    2.3950    0.8822    1.0293 H   0  0  0  0  0  0  0  0  0  0  0  0
   -0.0270   -0.0088   -0.0231 H   0  0  0  0  0  0  0  0  0  0  0  0
  1  2  1  0  0  0  0
  1  3  2  0  0  0  0
  1  9  1  0  0  0  0
  2  4  2  0  0  0  0
  2 10  1  0  0  0  0
  3  5  1  0  0  0  0
  3  6  1  0  0  0  0
  4  5  1  0  0  0  0
  4  7  1  0  0  0  0
  5  8  1  0  0  0  0
M  CHG  2   6  -1   7  -1
M  END
$$$$
