
  -OEChem-12122420533D

 21 21  0     0  0  0  0  0  0999 V2000
   -1.6305    1.0262    3.6436 C   0  0  0  0  0  0  0  0  0  0  0  0
   -1.2586    1.4106    4.9355 C   0  0  0  0  0  0  0  0  0  0  0  0
   -0.9148    0.0357    2.9706 C   0  0  0  0  0  0  0  0  0  0  0  0
   -0.1639    0.7960    5.5412 C   0  0  0  0  0  0  0  0  0  0  0  0
    0.1954   -0.5915    3.5521 C   0  0  0  0  0  0  0  0  0  0  0  0
    0.5586   -0.1867    4.8515 C   0  0  0  0  0  0  0  0  0  0  0  0
    2.3625   -1.2077    1.9159 N   0  5  0  0  0  0  0  0  0  0  0  0
    1.6176   -2.5325    6.0790 N   0  0  0  0  0  0  0  0  0  0  0  0
    0.0669   -2.0887    1.4050 O   0  0  0  0  0  0  0  0  0  0  0  0
    1.2258   -3.0050    3.4343 O   0  0  0  0  0  0  0  0  0  0  0  0
    3.1657   -0.9281    4.9355 O   0  0  0  0  0  0  0  0  0  0  0  0
    2.0050   -0.1804    7.0700 O   0  0  0  0  0  0  0  0  0  0  0  0
    0.3489   -2.5660    6.7513 F   0  0  0  0  0  0  0  0  0  0  0  0
    1.0624   -1.8524    2.4730 S   0  0  0  0  0  0  0  0  0  0  0  0
    1.9661   -0.8579    5.7726 S   0  0  0  0  0  0  0  0  0  0  0  0
   -2.4876    1.4914    3.1609 H   0  0  0  0  0  0  0  0  0  0  0  0
   -1.8164    2.1740    5.4721 H   0  0  0  0  0  0  0  0  0  0  0  0
   -1.2019   -0.2895    1.9758 H   0  0  0  0  0  0  0  0  0  0  0  0
    0.1429    1.0631    6.5465 H   0  0  0  0  0  0  0  0  0  0  0  0
    3.0493   -1.1942    2.6741 H   0  0  0  0  0  0  0  0  0  0  0  0
    1.3965   -2.9243    5.1285 H   0  0  0  0  0  0  0  0  0  0  0  0
  1  2  1  0  0  0  0
  1  3  2  0  0  0  0
  1 16  1  0  0  0  0
  2  4  2  0  0  0  0
  2 17  1  0  0  0  0
  3  5  1  0  0  0  0
  3 18  1  0  0  0  0
  4  6  1  0  0  0  0
  4 19  1  0  0  0  0
  5  6  2  0  0  0  0
  5 14  1  0  0  0  0
  6 15  1  0  0  0  0
  7 14  1  0  0  0  0
  7 20  1  0  0  0  0
  8 13  1  0  0  0  0
  8 15  1  0  0  0  0
  8 21  1  0  0  0  0
  9 14  2  0  0  0  0
 10 14  2  0  0  0  0
 11 15  2  0  0  0  0
 12 15  2  0  0  0  0
M  CHG  1   7  -1
M  END
$$$$
