
  -OEChem-12122420533D

 22 22  0     0  0  0  0  0  0999 V2000
    1.7705   -1.0834   -0.1268 C   0  0  0  0  0  0  0  0  0  0  0  0
    0.7912   -0.3849    0.5753 C   0  0  0  0  0  0  0  0  0  0  0  0
    2.7895   -1.7480    0.5624 C   0  0  0  0  0  0  0  0  0  0  0  0
    0.8216   -0.3619    1.9718 C   0  0  0  0  0  0  0  0  0  0  0  0
    2.8291   -1.7248    1.9574 C   0  0  0  0  0  0  0  0  0  0  0  0
    1.8283   -1.0324    2.6687 C   0  0  0  0  0  0  0  0  0  0  0  0
    5.3118   -2.7698    1.5317 N   0  0  0  0  0  0  0  0  0  0  0  0
    2.9142    0.1067    5.0453 N   0  0  0  0  0  0  0  0  0  0  0  0
    4.7641   -1.6733    3.7576 O   0  0  0  0  0  0  0  0  0  0  0  0
    3.7609   -3.9590    3.1303 O   0  0  0  0  0  0  0  0  0  0  0  0
    0.3963   -0.3309    4.7658 O   0  0  0  0  0  0  0  0  0  0  0  0
    2.0586   -2.2566    5.0528 O   0  0  0  0  0  0  0  0  0  0  0  0
    2.8059    1.3058    4.2810 F   0  0  0  0  0  0  0  0  0  0  0  0
    4.1858   -2.6105    2.7806 S   0  0  0  0  0  0  0  0  0  0  0  0
    1.6699   -0.9742    4.4821 S   0  0  0  0  0  0  0  0  0  0  0  0
    1.7552   -1.1126   -1.2125 H   0  0  0  0  0  0  0  0  0  0  0  0
    0.0013    0.1402    0.0464 H   0  0  0  0  0  0  0  0  0  0  0  0
    3.5667   -2.2731    0.0205 H   0  0  0  0  0  0  0  0  0  0  0  0
    0.0612    0.1651    2.5376 H   0  0  0  0  0  0  0  0  0  0  0  0
    6.1033   -2.1488    1.6952 H   0  0  0  0  0  0  0  0  0  0  0  0
    5.6061   -3.7445    1.4795 H   0  0  0  0  0  0  0  0  0  0  0  0
    3.8091   -0.2960    4.7254 H   0  0  0  0  0  0  0  0  0  0  0  0
  1  2  1  0  0  0  0
  1  3  2  0  0  0  0
  1 16  1  0  0  0  0
  2  4  2  0  0  0  0
  2 17  1  0  0  0  0
  3  5  1  0  0  0  0
  3 18  1  0  0  0  0
  4  6  1  0  0  0  0
  4 19  1  0  0  0  0
  5  6  2  0  0  0  0
  5 14  1  0  0  0  0
  6 15  1  0  0  0  0
  7 14  1  0  0  0  0
  7 20  1  0  0  0  0
  7 21  1  0  0  0  0
  8 13  1  0  0  0  0
  8 15  1  0  0  0  0
  8 22  1  0  0  0  0
  9 14  2  0  0  0  0
 10 14  2  0  0  0  0
 11 15  2  0  0  0  0
 12 15  2  0  0  0  0
M  END
$$$$
