
  -OEChem-12102412493D

 17 17  0     0  0  0  0  0  0999 V2000
    1.8863   -1.0190   -0.1133 C   0  0  0  0  0  0  0  0  0  0  0  0
    2.9177   -1.6354    0.6032 C   0  0  0  0  0  0  0  0  0  0  0  0
    0.8030   -0.4584    0.5717 C   0  0  0  0  0  0  0  0  0  0  0  0
    2.8635   -1.6908    1.9987 C   0  0  0  0  0  0  0  0  0  0  0  0
    0.7529   -0.5159    1.9674 C   0  0  0  0  0  0  0  0  0  0  0  0
    1.7809   -1.1334    2.6915 C   0  0  0  0  0  0  0  0  0  0  0  0
    1.7330   -1.1797    4.1971 C   0  0  0  0  0  0  0  0  0  0  0  0
    2.4890    0.2487    7.1241 N   0  5  0  0  0  0  0  0  0  0  0  0
    2.4108    0.0319    4.7503 N   0  0  0  0  0  0  0  0  0  0  0  0
    2.4206    0.0903    5.9898 N   0  3  0  0  0  0  0  0  0  0  0  0
    1.9256   -0.9773   -1.1988 H   0  0  0  0  0  0  0  0  0  0  0  0
    3.7614   -2.0729    0.0758 H   0  0  0  0  0  0  0  0  0  0  0  0
   -0.0012    0.0213    0.0198 H   0  0  0  0  0  0  0  0  0  0  0  0
    3.6686   -2.1674    2.5538 H   0  0  0  0  0  0  0  0  0  0  0  0
   -0.0887   -0.0760    2.4979 H   0  0  0  0  0  0  0  0  0  0  0  0
    0.6936   -1.2062    4.5461 H   0  0  0  0  0  0  0  0  0  0  0  0
    2.2380   -2.0797    4.5684 H   0  0  0  0  0  0  0  0  0  0  0  0
  1  2  1  0  0  0  0
  1  3  2  0  0  0  0
  1 11  1  0  0  0  0
  2  4  2  0  0  0  0
  2 12  1  0  0  0  0
  3  5  1  0  0  0  0
  3 13  1  0  0  0  0
  4  6  1  0  0  0  0
  4 14  1  0  0  0  0
  5  6  2  0  0  0  0
  5 15  1  0  0  0  0
  6  7  1  0  0  0  0
  7  9  1  0  0  0  0
  7 16  1  0  0  0  0
  7 17  1  0  0  0  0
  8 10  2  0  0  0  0
  9 10  2  0  0  0  0
M  CHG  2   8  -1  10   1
M  END
$$$$
