41
1 1 C15H22N3O
C                     5.388051788474    -0.509091659918    -7.193182211368
N                     4.440329133920    -0.472932690066    -6.066091776777
C                     4.297981109846     0.867307086419    -5.489238710444
C                     2.976917101486     1.040174607060    -4.718926827473
C                     1.768948158660     0.592790645644    -5.547719147641
N                     0.692481567763    -0.056306127415    -4.701473562920
C                    -0.579376887079    -0.402639922129    -5.495091357476
C                    -0.719319520267    -1.922786969524    -5.389813895668
C                    -0.088750088037    -2.245120550986    -4.029238219986
C                     1.144710850349    -1.349703602887    -4.009481632247
C                     4.498074861478    -1.548755425758    -5.161404226042
C                     4.297916179802    -2.881186150020    -5.609059777079
C                     4.007311894556    -3.547535719429    -6.861844822545
C                     3.891670518244    -4.869386566675    -6.562541065042
O                     4.072915300430    -5.108355750578    -5.215727891581
C                     4.313127833815    -3.895952064597    -4.637792425014
C                     4.491196854223    -3.641098361982    -3.278007959222
C                     4.648562901077    -2.295706664345    -2.959804394219
N                     4.651774414068    -1.285200901486    -3.859616227845
H                     5.532705940374    -1.531122796590    -7.538321452030
H                     4.998171995803     0.085921784015    -8.023903408927
H                     6.369624660337    -0.109614799314    -6.902191356877
H                     4.331336932762     1.572172342847    -6.325748069501
H                     5.126217979155     1.113719645216    -4.813532753481
H                     2.872835463755     2.090482497321    -4.429276654030
H                     3.057100413744     0.456489683017    -3.801589639483
H                     1.294105578081     1.429453365548    -6.065102670485
H                     2.061594353550    -0.158762614306    -6.284161249622
H                     0.436549047445     0.613581870081    -3.972655613353
H                    -1.409889027890     0.120175001520    -5.018101021227
H                    -0.463309115647    -0.029503047690    -6.511784249698
H                    -1.764241227915    -2.228989636781    -5.466124286924
H                    -0.163728529670    -2.414486712404    -6.194013863868
H                    -0.771462880446    -1.995034618621    -3.210299190064
H                     0.191770778378    -3.294886891872    -3.924579742053
H                     1.950906811487    -1.763528166915    -4.614709736252
H                     1.534390952709    -1.111824296492    -3.021121634023
H                     3.903780384162    -3.115976548492    -7.847564877375
H                     3.696496204342    -5.746069948294    -7.164242562779
H                     4.505396684367    -4.422306839821    -2.526256305444
H                     4.790298857622    -1.997722680098    -1.923350400376
