41
1 1 C15H22N3O
C                     4.906845439179    -0.439230510082    -7.487401036260
N                     4.999312515570    -0.285864503180    -6.033731680160
C                     4.628265864653     1.025846832451    -5.491194136656
C                     3.272620257870     1.034401458321    -4.746474898751
C                     2.170943066687     0.379558969068    -5.580643389499
N                     1.002050574679    -0.100845025865    -4.744740583945
C                    -0.105237699432    -0.721283127559    -5.606530262386
C                     0.057987027074    -2.224061054869    -5.403170307299
C                     0.409972582568    -2.322772888022    -3.913904692516
C                     1.398750424409    -1.174636393124    -3.709758448887
C                     4.786931708323    -1.417474291070    -5.247981660621
C                     5.189362197987    -1.474264091748    -3.887162536963
C                     5.902055631103    -0.628185605315    -2.952348715954
C                     5.960334705788    -1.325446505849    -1.786723041246
O                     5.344179018297    -2.556313962601    -1.894668662176
C                     4.887245387351    -2.648187836630    -3.175898845419
C                     4.252775897911    -3.748000741792    -3.755265799842
C                     3.939764778452    -3.587345689237    -5.102188904577
N                     4.165955766787    -2.462403465408    -5.817303693855
H                     5.385381369766    -1.371875043201    -7.783897820874
H                     3.874636668965    -0.461562439260    -7.866478522859
H                     5.436424522898     0.392889191718    -7.957737328925
H                     4.594848334383     1.722595648198    -6.331613813669
H                     5.392436381505     1.409446545782    -4.808846423605
H                     3.007695376293     2.068571062938    -4.498524064137
H                     3.398250256208     0.503933647935    -3.800265632810
H                     1.764793815925     1.073697634099    -6.320232090302
H                     2.532257566604    -0.510063488574    -6.096027601465
H                     0.619801623220     0.707866992989    -4.249831936919
H                    -1.059147843191    -0.364633658136    -5.212738225553
H                     0.012732924457    -0.374630223112    -6.632622992902
H                    -0.856009412268    -2.759366592731    -5.667195465907
H                     0.873429608537    -2.610289657082    -6.022183784564
H                    -0.483018103895    -2.190967079421    -3.295125323248
H                     0.873565919294    -3.273749056362    -3.646538504796
H                     2.413113455208    -1.484383859762    -3.947910847765
H                     1.384840043615    -0.725684596051    -2.716876721359
H                     6.345376548729     0.342429562296    -3.121713427426
H                     6.399312655462    -1.112412207081    -0.822170344723
H                     4.053891766006    -4.667047193340    -3.215412010313
H                     3.469520096946    -4.401631674529    -5.649554036521
