
  -OEChem-12102412493D

 41 43  0     1  0  0  0  0  0999 V2000
    4.9068   -0.4392   -7.4874 C   0  0  0  0  0  0  0  0  0  0  0  0
    4.9993   -0.2859   -6.0337 N   0  0  1  0  0  0  0  0  0  0  0  0
    4.6283    1.0258   -5.4912 C   0  0  0  0  0  0  0  0  0  0  0  0
    3.2726    1.0344   -4.7465 C   0  0  0  0  0  0  0  0  0  0  0  0
    2.1709    0.3796   -5.5806 C   0  0  0  0  0  0  0  0  0  0  0  0
    1.0021   -0.1008   -4.7447 N   0  3  0  0  0  0  0  0  0  0  0  0
   -0.1052   -0.7213   -5.6065 C   0  0  0  0  0  0  0  0  0  0  0  0
    0.0580   -2.2241   -5.4032 C   0  0  0  0  0  0  0  0  0  0  0  0
    0.4100   -2.3228   -3.9139 C   0  0  0  0  0  0  0  0  0  0  0  0
    1.3988   -1.1746   -3.7098 C   0  0  0  0  0  0  0  0  0  0  0  0
    4.7869   -1.4175   -5.2480 C   0  0  0  0  0  0  0  0  0  0  0  0
    5.1894   -1.4743   -3.8872 C   0  0  0  0  0  0  0  0  0  0  0  0
    5.9021   -0.6282   -2.9523 C   0  0  0  0  0  0  0  0  0  0  0  0
    5.9603   -1.3254   -1.7867 C   0  0  0  0  0  0  0  0  0  0  0  0
    5.3442   -2.5563   -1.8947 O   0  0  0  0  0  0  0  0  0  0  0  0
    4.8872   -2.6482   -3.1759 C   0  0  0  0  0  0  0  0  0  0  0  0
    4.2528   -3.7480   -3.7553 C   0  0  0  0  0  0  0  0  0  0  0  0
    3.9398   -3.5873   -5.1022 C   0  0  0  0  0  0  0  0  0  0  0  0
    4.1660   -2.4624   -5.8173 N   0  0  0  0  0  0  0  0  0  0  0  0
    5.3854   -1.3719   -7.7839 H   0  0  0  0  0  0  0  0  0  0  0  0
    3.8746   -0.4616   -7.8665 H   0  0  0  0  0  0  0  0  0  0  0  0
    5.4364    0.3929   -7.9577 H   0  0  0  0  0  0  0  0  0  0  0  0
    4.5948    1.7226   -6.3316 H   0  0  0  0  0  0  0  0  0  0  0  0
    5.3924    1.4094   -4.8088 H   0  0  0  0  0  0  0  0  0  0  0  0
    3.0077    2.0686   -4.4985 H   0  0  0  0  0  0  0  0  0  0  0  0
    3.3983    0.5039   -3.8003 H   0  0  0  0  0  0  0  0  0  0  0  0
    1.7648    1.0737   -6.3202 H   0  0  0  0  0  0  0  0  0  0  0  0
    2.5323   -0.5101   -6.0960 H   0  0  0  0  0  0  0  0  0  0  0  0
    0.6198    0.7079   -4.2498 H   0  0  0  0  0  0  0  0  0  0  0  0
   -1.0591   -0.3646   -5.2127 H   0  0  0  0  0  0  0  0  0  0  0  0
    0.0127   -0.3746   -6.6326 H   0  0  0  0  0  0  0  0  0  0  0  0
   -0.8560   -2.7594   -5.6672 H   0  0  0  0  0  0  0  0  0  0  0  0
    0.8734   -2.6103   -6.0222 H   0  0  0  0  0  0  0  0  0  0  0  0
   -0.4830   -2.1910   -3.2951 H   0  0  0  0  0  0  0  0  0  0  0  0
    0.8736   -3.2737   -3.6465 H   0  0  0  0  0  0  0  0  0  0  0  0
    2.4131   -1.4844   -3.9479 H   0  0  0  0  0  0  0  0  0  0  0  0
    1.3848   -0.7257   -2.7169 H   0  0  0  0  0  0  0  0  0  0  0  0
    6.3454    0.3424   -3.1217 H   0  0  0  0  0  0  0  0  0  0  0  0
    6.3993   -1.1124   -0.8222 H   0  0  0  0  0  0  0  0  0  0  0  0
    4.0539   -4.6670   -3.2154 H   0  0  0  0  0  0  0  0  0  0  0  0
    3.4695   -4.4016   -5.6496 H   0  0  0  0  0  0  0  0  0  0  0  0
  1  2  1  0  0  0  0
  1 20  1  0  0  0  0
  1 21  1  0  0  0  0
  1 22  1  0  0  0  0
  2  3  1  0  0  0  0
  2 11  1  0  0  0  0
  3  4  1  0  0  0  0
  3 23  1  0  0  0  0
  3 24  1  0  0  0  0
  4  5  1  0  0  0  0
  4 25  1  0  0  0  0
  4 26  1  0  0  0  0
  5  6  1  0  0  0  0
  5 27  1  0  0  0  0
  5 28  1  0  0  0  0
  6  7  1  0  0  0  0
  6 10  1  0  0  0  0
  6 29  1  0  0  0  0
  7  8  1  0  0  0  0
  7 30  1  0  0  0  0
  7 31  1  0  0  0  0
  8  9  1  0  0  0  0
  8 32  1  0  0  0  0
  8 33  1  0  0  0  0
  9 10  1  0  0  0  0
  9 34  1  0  0  0  0
  9 35  1  0  0  0  0
 10 36  1  0  0  0  0
 10 37  1  0  0  0  0
 11 12  2  0  0  0  0
 11 19  1  0  0  0  0
 12 13  1  0  0  0  0
 12 16  1  0  0  0  0
 13 14  2  0  0  0  0
 13 38  1  0  0  0  0
 14 15  1  0  0  0  0
 14 39  1  0  0  0  0
 15 16  1  0  0  0  0
 16 17  2  0  0  0  0
 17 18  1  0  0  0  0
 17 40  1  0  0  0  0
 18 19  2  0  0  0  0
 18 41  1  0  0  0  0
M  CHG  1   6   1
M  END
$$$$
