
  -OEChem-12102412493D

 41 43  0     1  0  0  0  0  0999 V2000
    6.2380   -1.0379   -5.4043 C   0  0  0  0  0  0  0  0  0  0  0  0
    4.8128   -0.6823   -5.3045 N   0  0  1  0  0  0  0  0  0  0  0  0
    4.5922    0.7217   -4.9465 C   0  0  0  0  0  0  0  0  0  0  0  0
    3.1952    0.9643   -4.3408 C   0  0  0  0  0  0  0  0  0  0  0  0
    2.8533   -0.0827   -3.2773 C   0  0  0  0  0  0  0  0  0  0  0  0
    1.3736   -0.4094   -3.2184 N   0  3  0  0  0  0  0  0  0  0  0  0
    0.8593   -1.1514   -4.4601 C   0  0  0  0  0  0  0  0  0  0  0  0
    0.7718   -2.6046   -4.0141 C   0  0  0  0  0  0  0  0  0  0  0  0
    0.2462   -2.4853   -2.5770 C   0  0  0  0  0  0  0  0  0  0  0  0
    1.0279   -1.2965   -2.0092 C   0  0  0  0  0  0  0  0  0  0  0  0
    3.9600   -1.2299   -6.2793 C   0  0  0  0  0  0  0  0  0  0  0  0
    3.8180   -2.6364   -6.4000 C   0  0  0  0  0  0  0  0  0  0  0  0
    4.3372   -3.8122   -5.7338 C   0  0  0  0  0  0  0  0  0  0  0  0
    3.7228   -4.8742   -6.3218 C   0  0  0  0  0  0  0  0  0  0  0  0
    2.8410   -4.4764   -7.3061 O   0  0  0  0  0  0  0  0  0  0  0  0
    2.8986   -3.1135   -7.3477 C   0  0  0  0  0  0  0  0  0  0  0  0
    2.1302   -2.2684   -8.1488 C   0  0  0  0  0  0  0  0  0  0  0  0
    2.3406   -0.9112   -7.9240 C   0  0  0  0  0  0  0  0  0  0  0  0
    3.2146   -0.4046   -7.0223 N   0  0  0  0  0  0  0  0  0  0  0  0
    6.3494   -2.0699   -5.7338 H   0  0  0  0  0  0  0  0  0  0  0  0
    6.7624   -0.3946   -6.1246 H   0  0  0  0  0  0  0  0  0  0  0  0
    6.7149   -0.9328   -4.4256 H   0  0  0  0  0  0  0  0  0  0  0  0
    4.7181    1.3928   -5.8051 H   0  0  0  0  0  0  0  0  0  0  0  0
    5.3600    0.9778   -4.2100 H   0  0  0  0  0  0  0  0  0  0  0  0
    2.4698    0.9436   -5.1555 H   0  0  0  0  0  0  0  0  0  0  0  0
    3.1698    1.9701   -3.9099 H   0  0  0  0  0  0  0  0  0  0  0  0
    3.3595   -1.0263   -3.4889 H   0  0  0  0  0  0  0  0  0  0  0  0
    3.1364    0.2461   -2.2746 H   0  0  0  0  0  0  0  0  0  0  0  0
    0.8686    0.4757   -3.1377 H   0  0  0  0  0  0  0  0  0  0  0  0
   -0.1277   -0.7432   -4.6873 H   0  0  0  0  0  0  0  0  0  0  0  0
    1.5260   -0.9616   -5.2963 H   0  0  0  0  0  0  0  0  0  0  0  0
    0.1104   -3.1757   -4.6682 H   0  0  0  0  0  0  0  0  0  0  0  0
    1.7592   -3.0762   -4.0448 H   0  0  0  0  0  0  0  0  0  0  0  0
   -0.8279   -2.2773   -2.5788 H   0  0  0  0  0  0  0  0  0  0  0  0
    0.4129   -3.3833   -1.9792 H   0  0  0  0  0  0  0  0  0  0  0  0
    1.9762   -1.6090   -1.5721 H   0  0  0  0  0  0  0  0  0  0  0  0
    0.4843   -0.6959   -1.2794 H   0  0  0  0  0  0  0  0  0  0  0  0
    5.0683   -3.8686   -4.9394 H   0  0  0  0  0  0  0  0  0  0  0  0
    3.7974   -5.9426   -6.1744 H   0  0  0  0  0  0  0  0  0  0  0  0
    1.4228   -2.6324   -8.8856 H   0  0  0  0  0  0  0  0  0  0  0  0
    1.7823   -0.1743   -8.4968 H   0  0  0  0  0  0  0  0  0  0  0  0
  1  2  1  0  0  0  0
  1 20  1  0  0  0  0
  1 21  1  0  0  0  0
  1 22  1  0  0  0  0
  2  3  1  0  0  0  0
  2 11  1  0  0  0  0
  3  4  1  0  0  0  0
  3 23  1  0  0  0  0
  3 24  1  0  0  0  0
  4  5  1  0  0  0  0
  4 25  1  0  0  0  0
  4 26  1  0  0  0  0
  5  6  1  0  0  0  0
  5 27  1  0  0  0  0
  5 28  1  0  0  0  0
  6  7  1  0  0  0  0
  6 10  1  0  0  0  0
  6 29  1  0  0  0  0
  7  8  1  0  0  0  0
  7 30  1  0  0  0  0
  7 31  1  0  0  0  0
  8  9  1  0  0  0  0
  8 32  1  0  0  0  0
  8 33  1  0  0  0  0
  9 10  1  0  0  0  0
  9 34  1  0  0  0  0
  9 35  1  0  0  0  0
 10 36  1  0  0  0  0
 10 37  1  0  0  0  0
 11 12  2  0  0  0  0
 11 19  1  0  0  0  0
 12 13  1  0  0  0  0
 12 16  1  0  0  0  0
 13 14  2  0  0  0  0
 13 38  1  0  0  0  0
 14 15  1  0  0  0  0
 14 39  1  0  0  0  0
 15 16  1  0  0  0  0
 16 17  2  0  0  0  0
 17 18  1  0  0  0  0
 17 40  1  0  0  0  0
 18 19  2  0  0  0  0
 18 41  1  0  0  0  0
M  CHG  1   6   1
M  END
$$$$
