40
-1 1 C15ClH18O5S
C                     0.725706662741     1.218601118425    -7.442752529334
C                    -0.601574114198     1.020916467212    -6.718600171188
S                    -1.633880205393    -0.255170240546    -7.504634163093
O                    -1.757353753680     0.094588939419    -8.936189976158
O                    -2.865863040703    -0.379745789791    -6.697267318000
C                    -0.635049515288    -1.731410248248    -7.395482351504
C                    -0.179415517112    -2.326029619205    -8.579065760692
C                     0.642691352804    -3.444048876883    -8.505371330518
C                     1.064558394414    -3.973288890305    -7.271418511331
C                     0.604211776838    -3.348354041762    -6.105470133777
C                    -0.256256715445    -2.243107587335    -6.142263883444
O                    -0.667461497731    -1.602722468192    -4.996497245183
C                    -1.794980761658    -2.217954524487    -4.321436180611
C                    -2.054939039941    -1.453979311068    -3.028835709520
C                    -0.790448504615    -1.344525143496    -2.133256510397
C                    -0.264621282028     0.082092255544    -2.362169369341
C                    -1.549935961906     0.918086942138    -2.488076772956
C                    -2.522932966725     0.013253386119    -3.277611081605
Cl                    1.135797198909    -3.936521504246    -4.531862709960
C                     2.020733697098    -5.182715832765    -7.263440053608
O                     1.441764234137    -6.290630880239    -7.360249764569
O                     3.233178928782    -4.870296285802    -7.197390329091
H                     1.291873598566     2.021192361446    -6.958199578690
H                     1.331657289434     0.309124789106    -7.409567551281
H                     0.561503302360     1.488672735219    -8.489018294179
H                    -1.232479261743     1.915039280691    -6.747596378237
H                    -0.476518918731     0.701571027748    -5.683119201942
H                    -0.477114788145    -1.896984870827    -9.530675295944
H                     0.990652499735    -3.923521948559    -9.416267521670
H                    -2.661204685828    -2.170368819453    -4.989642124843
H                    -1.549454310100    -3.263984895433    -4.110283334374
H                    -2.835985610720    -2.019472593721    -2.506691517985
H                    -1.072147271875    -1.466107301305    -1.079450351307
H                    -0.049084033263    -2.111038095022    -2.372349786355
H                     0.395948518635     0.429034170125    -1.559393480516
H                     0.300253879309     0.111895473715    -3.299355804000
H                    -1.949815023649     1.124223865765    -1.486273609791
H                    -1.386989048143     1.885971179626    -2.975685256316
H                    -2.486536936066     0.234003765965    -4.346187476246
H                    -3.561732173422     0.163042811257    -2.965281468309
