
  -OEChem-12102412493D

 40 41  0     0  0  0  0  0  0999 V2000
    0.7257    1.2186   -7.4428 C   0  0  0  0  0  0  0  0  0  0  0  0
   -0.6016    1.0209   -6.7186 C   0  0  0  0  0  0  0  0  0  0  0  0
   -1.6339   -0.2552   -7.5046 S   0  0  0  0  0  0  0  0  0  0  0  0
   -1.7574    0.0946   -8.9362 O   0  0  0  0  0  0  0  0  0  0  0  0
   -2.8659   -0.3797   -6.6973 O   0  0  0  0  0  0  0  0  0  0  0  0
   -0.6350   -1.7314   -7.3955 C   0  0  0  0  0  0  0  0  0  0  0  0
   -0.1794   -2.3260   -8.5791 C   0  0  0  0  0  0  0  0  0  0  0  0
    0.6427   -3.4440   -8.5054 C   0  0  0  0  0  0  0  0  0  0  0  0
    1.0646   -3.9733   -7.2714 C   0  0  0  0  0  0  0  0  0  0  0  0
    0.6042   -3.3484   -6.1055 C   0  0  0  0  0  0  0  0  0  0  0  0
   -0.2563   -2.2431   -6.1423 C   0  0  0  0  0  0  0  0  0  0  0  0
   -0.6675   -1.6027   -4.9965 O   0  0  0  0  0  0  0  0  0  0  0  0
   -1.7950   -2.2180   -4.3214 C   0  0  0  0  0  0  0  0  0  0  0  0
   -2.0549   -1.4540   -3.0288 C   0  0  0  0  0  0  0  0  0  0  0  0
   -0.7904   -1.3445   -2.1333 C   0  0  0  0  0  0  0  0  0  0  0  0
   -0.2646    0.0821   -2.3622 C   0  0  0  0  0  0  0  0  0  0  0  0
   -1.5499    0.9181   -2.4881 C   0  0  0  0  0  0  0  0  0  0  0  0
   -2.5229    0.0133   -3.2776 C   0  0  0  0  0  0  0  0  0  0  0  0
    1.1358   -3.9365   -4.5319 Cl  0  0  0  0  0  0  0  0  0  0  0  0
    2.0207   -5.1827   -7.2634 C   0  0  0  0  0  0  0  0  0  0  0  0
    1.4418   -6.2906   -7.3602 O   0  0  0  0  0  0  0  0  0  0  0  0
    3.2332   -4.8703   -7.1974 O   0  5  0  0  0  0  0  0  0  0  0  0
    1.2919    2.0212   -6.9582 H   0  0  0  0  0  0  0  0  0  0  0  0
    1.3317    0.3091   -7.4096 H   0  0  0  0  0  0  0  0  0  0  0  0
    0.5615    1.4887   -8.4890 H   0  0  0  0  0  0  0  0  0  0  0  0
   -1.2325    1.9150   -6.7476 H   0  0  0  0  0  0  0  0  0  0  0  0
   -0.4765    0.7016   -5.6831 H   0  0  0  0  0  0  0  0  0  0  0  0
   -0.4771   -1.8970   -9.5307 H   0  0  0  0  0  0  0  0  0  0  0  0
    0.9907   -3.9235   -9.4163 H   0  0  0  0  0  0  0  0  0  0  0  0
   -2.6612   -2.1704   -4.9896 H   0  0  0  0  0  0  0  0  0  0  0  0
   -1.5495   -3.2640   -4.1103 H   0  0  0  0  0  0  0  0  0  0  0  0
   -2.8360   -2.0195   -2.5067 H   0  0  0  0  0  0  0  0  0  0  0  0
   -1.0721   -1.4661   -1.0795 H   0  0  0  0  0  0  0  0  0  0  0  0
   -0.0491   -2.1110   -2.3723 H   0  0  0  0  0  0  0  0  0  0  0  0
    0.3959    0.4290   -1.5594 H   0  0  0  0  0  0  0  0  0  0  0  0
    0.3003    0.1119   -3.2994 H   0  0  0  0  0  0  0  0  0  0  0  0
   -1.9498    1.1242   -1.4863 H   0  0  0  0  0  0  0  0  0  0  0  0
   -1.3870    1.8860   -2.9757 H   0  0  0  0  0  0  0  0  0  0  0  0
   -2.4865    0.2340   -4.3462 H   0  0  0  0  0  0  0  0  0  0  0  0
   -3.5617    0.1630   -2.9653 H   0  0  0  0  0  0  0  0  0  0  0  0
  1  2  1  0  0  0  0
  1 23  1  0  0  0  0
  1 24  1  0  0  0  0
  1 25  1  0  0  0  0
  2  3  1  0  0  0  0
  2 26  1  0  0  0  0
  2 27  1  0  0  0  0
  3  4  2  0  0  0  0
  3  5  2  0  0  0  0
  3  6  1  0  0  0  0
  6  7  2  0  0  0  0
  6 11  1  0  0  0  0
  7  8  1  0  0  0  0
  7 28  1  0  0  0  0
  8  9  2  0  0  0  0
  8 29  1  0  0  0  0
  9 10  1  0  0  0  0
  9 20  1  0  0  0  0
 10 11  2  0  0  0  0
 10 19  1  0  0  0  0
 11 12  1  0  0  0  0
 12 13  1  0  0  0  0
 13 14  1  0  0  0  0
 13 30  1  0  0  0  0
 13 31  1  0  0  0  0
 14 15  1  0  0  0  0
 14 18  1  0  0  0  0
 14 32  1  0  0  0  0
 15 16  1  0  0  0  0
 15 33  1  0  0  0  0
 15 34  1  0  0  0  0
 16 17  1  0  0  0  0
 16 35  1  0  0  0  0
 16 36  1  0  0  0  0
 17 18  1  0  0  0  0
 17 37  1  0  0  0  0
 17 38  1  0  0  0  0
 18 39  1  0  0  0  0
 18 40  1  0  0  0  0
 20 21  2  0  0  0  0
 20 22  1  0  0  0  0
M  CHG  1  22  -1
M  END
$$$$
