
  -OEChem-12122420533D

 41 43  0     1  0  0  0  0  0999 V2000
    4.6951   -0.7384   -7.4551 C   0  0  0  0  0  0  0  0  0  0  0  0
    5.2392   -0.1679   -6.2197 N   0  0  1  0  0  0  0  0  0  0  0  0
    4.5205    0.9988   -5.7251 C   0  0  0  0  0  0  0  0  0  0  0  0
    3.1906    0.6306   -5.0228 C   0  0  0  0  0  0  0  0  0  0  0  0
    2.4795    1.8696   -4.4991 C   0  0  0  0  0  0  0  0  0  0  0  0
    1.2925    1.5229   -3.6286 N   0  3  0  0  0  0  0  0  0  0  0  0
    0.6376    2.7279   -2.9519 C   0  0  0  0  0  0  0  0  0  0  0  0
   -0.8573    2.3693   -2.8053 C   0  0  0  0  0  0  0  0  0  0  0  0
   -0.9891    0.9230   -3.3310 C   0  0  0  0  0  0  0  0  0  0  0  0
    0.1634    0.7816   -4.3187 C   0  0  0  0  0  0  0  0  0  0  0  0
    5.6615   -1.0903   -5.2437 C   0  0  0  0  0  0  0  0  0  0  0  0
    6.4251   -0.6809   -4.1188 C   0  0  0  0  0  0  0  0  0  0  0  0
    7.0503    0.5339   -3.6337 C   0  0  0  0  0  0  0  0  0  0  0  0
    7.6834    0.1944   -2.4788 C   0  0  0  0  0  0  0  0  0  0  0  0
    7.5214   -1.1410   -2.1786 O   0  0  0  0  0  0  0  0  0  0  0  0
    6.7701   -1.6748   -3.1874 C   0  0  0  0  0  0  0  0  0  0  0  0
    6.4315   -3.0176   -3.3477 C   0  0  0  0  0  0  0  0  0  0  0  0
    5.7241   -3.2976   -4.5128 C   0  0  0  0  0  0  0  0  0  0  0  0
    5.3344   -2.3725   -5.4178 N   0  0  0  0  0  0  0  0  0  0  0  0
    5.3908   -1.4802   -7.8462 H   0  0  0  0  0  0  0  0  0  0  0  0
    3.7268   -1.2395   -7.3202 H   0  0  0  0  0  0  0  0  0  0  0  0
    4.5903    0.0677   -8.1867 H   0  0  0  0  0  0  0  0  0  0  0  0
    4.3268    1.6634   -6.5730 H   0  0  0  0  0  0  0  0  0  0  0  0
    5.1456    1.5553   -5.0238 H   0  0  0  0  0  0  0  0  0  0  0  0
    3.4247   -0.0453   -4.1906 H   0  0  0  0  0  0  0  0  0  0  0  0
    2.5507    0.0833   -5.7204 H   0  0  0  0  0  0  0  0  0  0  0  0
    3.1457    2.4743   -3.8766 H   0  0  0  0  0  0  0  0  0  0  0  0
    2.0951    2.5016   -5.3041 H   0  0  0  0  0  0  0  0  0  0  0  0
    1.6393    0.9043   -2.8887 H   0  0  0  0  0  0  0  0  0  0  0  0
    1.1562    2.9037   -2.0089 H   0  0  0  0  0  0  0  0  0  0  0  0
    0.8033    3.5852   -3.6049 H   0  0  0  0  0  0  0  0  0  0  0  0
   -1.1910    2.4575   -1.7706 H   0  0  0  0  0  0  0  0  0  0  0  0
   -1.4602    3.0538   -3.4051 H   0  0  0  0  0  0  0  0  0  0  0  0
   -0.8812    0.1954   -2.5201 H   0  0  0  0  0  0  0  0  0  0  0  0
   -1.9504    0.7357   -3.8123 H   0  0  0  0  0  0  0  0  0  0  0  0
   -0.0268    1.3045   -5.2594 H   0  0  0  0  0  0  0  0  0  0  0  0
    0.4745   -0.2416   -4.5274 H   0  0  0  0  0  0  0  0  0  0  0  0
    7.0855    1.5095   -4.0979 H   0  0  0  0  0  0  0  0  0  0  0  0
    8.2905    0.7542   -1.7812 H   0  0  0  0  0  0  0  0  0  0  0  0
    6.7199   -3.7883   -2.6418 H   0  0  0  0  0  0  0  0  0  0  0  0
    5.4399   -4.3224   -4.7409 H   0  0  0  0  0  0  0  0  0  0  0  0
  1  2  1  0  0  0  0
  1 20  1  0  0  0  0
  1 21  1  0  0  0  0
  1 22  1  0  0  0  0
  2  3  1  0  0  0  0
  2 11  1  0  0  0  0
  3  4  1  0  0  0  0
  3 23  1  0  0  0  0
  3 24  1  0  0  0  0
  4  5  1  0  0  0  0
  4 25  1  0  0  0  0
  4 26  1  0  0  0  0
  5  6  1  0  0  0  0
  5 27  1  0  0  0  0
  5 28  1  0  0  0  0
  6  7  1  0  0  0  0
  6 10  1  0  0  0  0
  6 29  1  0  0  0  0
  7  8  1  0  0  0  0
  7 30  1  0  0  0  0
  7 31  1  0  0  0  0
  8  9  1  0  0  0  0
  8 32  1  0  0  0  0
  8 33  1  0  0  0  0
  9 10  1  0  0  0  0
  9 34  1  0  0  0  0
  9 35  1  0  0  0  0
 10 36  1  0  0  0  0
 10 37  1  0  0  0  0
 11 12  2  0  0  0  0
 11 19  1  0  0  0  0
 12 13  1  0  0  0  0
 12 16  1  0  0  0  0
 13 14  2  0  0  0  0
 13 38  1  0  0  0  0
 14 15  1  0  0  0  0
 14 39  1  0  0  0  0
 15 16  1  0  0  0  0
 16 17  2  0  0  0  0
 17 18  1  0  0  0  0
 17 40  1  0  0  0  0
 18 19  2  0  0  0  0
 18 41  1  0  0  0  0
M  CHG  1   6   1
M  END
$$$$
