
  -OEChem-12102412493D

 40 41  0     0  0  0  0  0  0999 V2000
    3.9125    0.3252   -8.7916 C   0  0  0  0  0  0  0  0  0  0  0  0
    3.3734    1.4579   -7.9245 C   0  0  0  0  0  0  0  0  0  0  0  0
    4.6682    2.2139   -6.8936 S   0  0  0  0  0  0  0  0  0  0  0  0
    4.0202    3.2589   -6.0732 O   0  0  0  0  0  0  0  0  0  0  0  0
    5.7782    2.6033   -7.7903 O   0  0  0  0  0  0  0  0  0  0  0  0
    5.2483    0.8607   -5.8803 C   0  0  0  0  0  0  0  0  0  0  0  0
    6.5704    0.4225   -6.0282 C   0  0  0  0  0  0  0  0  0  0  0  0
    7.0170   -0.6570   -5.2750 C   0  0  0  0  0  0  0  0  0  0  0  0
    6.1721   -1.3350   -4.3761 C   0  0  0  0  0  0  0  0  0  0  0  0
    4.8507   -0.8852   -4.2644 C   0  0  0  0  0  0  0  0  0  0  0  0
    4.3724    0.2102   -4.9947 C   0  0  0  0  0  0  0  0  0  0  0  0
    3.0604    0.6159   -4.9162 O   0  0  0  0  0  0  0  0  0  0  0  0
    2.7719    1.4965   -3.8022 C   0  0  0  0  0  0  0  0  0  0  0  0
    1.2749    1.7750   -3.8030 C   0  0  0  0  0  0  0  0  0  0  0  0
    0.4387    0.5017   -3.5750 C   0  0  0  0  0  0  0  0  0  0  0  0
    0.4736    0.2734   -2.0458 C   0  0  0  0  0  0  0  0  0  0  0  0
    0.7252    1.6734   -1.4107 C   0  0  0  0  0  0  0  0  0  0  0  0
    0.8880    2.6564   -2.5988 C   0  0  0  0  0  0  0  0  0  0  0  0
    3.7253   -1.7248   -3.1993 Cl  0  0  0  0  0  0  0  0  0  0  0  0
    6.7309   -2.5271   -3.5739 C   0  0  0  0  0  0  0  0  0  0  0  0
    6.7618   -3.6053   -4.2137 O   0  0  0  0  0  0  0  0  0  0  0  0
    7.1011   -2.2272   -2.4144 O   0  5  0  0  0  0  0  0  0  0  0  0
    3.1084   -0.0700   -9.4216 H   0  0  0  0  0  0  0  0  0  0  0  0
    4.7198    0.6801   -9.4373 H   0  0  0  0  0  0  0  0  0  0  0  0
    4.2945   -0.4942   -8.1768 H   0  0  0  0  0  0  0  0  0  0  0  0
    2.5995    1.1316   -7.2278 H   0  0  0  0  0  0  0  0  0  0  0  0
    2.9976    2.2970   -8.5187 H   0  0  0  0  0  0  0  0  0  0  0  0
    7.2169    0.9327   -6.7353 H   0  0  0  0  0  0  0  0  0  0  0  0
    8.0392   -1.0092   -5.3836 H   0  0  0  0  0  0  0  0  0  0  0  0
    3.0921    1.0102   -2.8746 H   0  0  0  0  0  0  0  0  0  0  0  0
    3.3358    2.4230   -3.9424 H   0  0  0  0  0  0  0  0  0  0  0  0
    1.0293    2.2598   -4.7543 H   0  0  0  0  0  0  0  0  0  0  0  0
   -0.5907    0.6864   -3.9078 H   0  0  0  0  0  0  0  0  0  0  0  0
    0.8248   -0.3518   -4.1371 H   0  0  0  0  0  0  0  0  0  0  0  0
   -0.4539   -0.1825   -1.6843 H   0  0  0  0  0  0  0  0  0  0  0  0
    1.2850   -0.4128   -1.7892 H   0  0  0  0  0  0  0  0  0  0  0  0
   -0.0941    1.9798   -0.7520 H   0  0  0  0  0  0  0  0  0  0  0  0
    1.6309    1.6571   -0.7966 H   0  0  0  0  0  0  0  0  0  0  0  0
    1.6202    3.4463   -2.3991 H   0  0  0  0  0  0  0  0  0  0  0  0
   -0.0670    3.1506   -2.8133 H   0  0  0  0  0  0  0  0  0  0  0  0
  1  2  1  0  0  0  0
  1 23  1  0  0  0  0
  1 24  1  0  0  0  0
  1 25  1  0  0  0  0
  2  3  1  0  0  0  0
  2 26  1  0  0  0  0
  2 27  1  0  0  0  0
  3  4  2  0  0  0  0
  3  5  2  0  0  0  0
  3  6  1  0  0  0  0
  6  7  2  0  0  0  0
  6 11  1  0  0  0  0
  7  8  1  0  0  0  0
  7 28  1  0  0  0  0
  8  9  2  0  0  0  0
  8 29  1  0  0  0  0
  9 10  1  0  0  0  0
  9 20  1  0  0  0  0
 10 11  2  0  0  0  0
 10 19  1  0  0  0  0
 11 12  1  0  0  0  0
 12 13  1  0  0  0  0
 13 14  1  0  0  0  0
 13 30  1  0  0  0  0
 13 31  1  0  0  0  0
 14 15  1  0  0  0  0
 14 18  1  0  0  0  0
 14 32  1  0  0  0  0
 15 16  1  0  0  0  0
 15 33  1  0  0  0  0
 15 34  1  0  0  0  0
 16 17  1  0  0  0  0
 16 35  1  0  0  0  0
 16 36  1  0  0  0  0
 17 18  1  0  0  0  0
 17 37  1  0  0  0  0
 17 38  1  0  0  0  0
 18 39  1  0  0  0  0
 18 40  1  0  0  0  0
 20 21  2  0  0  0  0
 20 22  1  0  0  0  0
M  CHG  1  22  -1
M  END
$$$$
