
  -OEChem-12102412493D

 40 41  0     0  0  0  0  0  0999 V2000
    3.7267    3.3008   -4.7441 C   0  0  0  0  0  0  0  0  0  0  0  0
    4.7144    3.2683   -5.9037 C   0  0  0  0  0  0  0  0  0  0  0  0
    4.5057    1.8750   -7.0627 S   0  0  0  0  0  0  0  0  0  0  0  0
    5.5310    2.0824   -8.1083 O   0  0  0  0  0  0  0  0  0  0  0  0
    3.0849    1.8209   -7.4616 O   0  0  0  0  0  0  0  0  0  0  0  0
    4.9839    0.4224   -6.1302 C   0  0  0  0  0  0  0  0  0  0  0  0
    6.2763   -0.0841   -6.3373 C   0  0  0  0  0  0  0  0  0  0  0  0
    6.7108   -1.1786   -5.6009 C   0  0  0  0  0  0  0  0  0  0  0  0
    5.8934   -1.7922   -4.6333 C   0  0  0  0  0  0  0  0  0  0  0  0
    4.6097   -1.2669   -4.4476 C   0  0  0  0  0  0  0  0  0  0  0  0
    4.1300   -0.1735   -5.1830 C   0  0  0  0  0  0  0  0  0  0  0  0
    2.8829    0.3469   -4.9465 O   0  0  0  0  0  0  0  0  0  0  0  0
    1.8100   -0.3111   -5.6577 C   0  0  0  0  0  0  0  0  0  0  0  0
    0.5025    0.3502   -5.2427 C   0  0  0  0  0  0  0  0  0  0  0  0
   -0.6975   -0.3623   -5.8982 C   0  0  0  0  0  0  0  0  0  0  0  0
   -1.0089   -1.5719   -4.9779 C   0  0  0  0  0  0  0  0  0  0  0  0
   -0.3647   -1.2378   -3.5996 C   0  0  0  0  0  0  0  0  0  0  0  0
    0.2125    0.1893   -3.7389 C   0  0  0  0  0  0  0  0  0  0  0  0
    3.5456   -1.9729   -3.2325 Cl  0  0  0  0  0  0  0  0  0  0  0  0
    6.4456   -2.9846   -3.8289 C   0  0  0  0  0  0  0  0  0  0  0  0
    6.2174   -4.1020   -4.3491 O   0  0  0  0  0  0  0  0  0  0  0  0
    7.0693   -2.6508   -2.7933 O   0  5  0  0  0  0  0  0  0  0  0  0
    3.8675    4.2312   -4.1823 H   0  0  0  0  0  0  0  0  0  0  0  0
    2.6985    3.2621   -5.1102 H   0  0  0  0  0  0  0  0  0  0  0  0
    3.8723    2.4609   -4.0637 H   0  0  0  0  0  0  0  0  0  0  0  0
    5.7546    3.2093   -5.5725 H   0  0  0  0  0  0  0  0  0  0  0  0
    4.6080    4.1390   -6.5592 H   0  0  0  0  0  0  0  0  0  0  0  0
    6.9112    0.3861   -7.0813 H   0  0  0  0  0  0  0  0  0  0  0  0
    7.7088   -1.5778   -5.7604 H   0  0  0  0  0  0  0  0  0  0  0  0
    1.9767   -0.1846   -6.7312 H   0  0  0  0  0  0  0  0  0  0  0  0
    1.8205   -1.3787   -5.4103 H   0  0  0  0  0  0  0  0  0  0  0  0
    0.5600    1.4034   -5.5372 H   0  0  0  0  0  0  0  0  0  0  0  0
   -1.5508    0.3257   -5.9187 H   0  0  0  0  0  0  0  0  0  0  0  0
   -0.4999   -0.6579   -6.9345 H   0  0  0  0  0  0  0  0  0  0  0  0
   -2.0880   -1.7391   -4.8967 H   0  0  0  0  0  0  0  0  0  0  0  0
   -0.5801   -2.4916   -5.3880 H   0  0  0  0  0  0  0  0  0  0  0  0
   -1.0864   -1.3054   -2.7790 H   0  0  0  0  0  0  0  0  0  0  0  0
    0.4391   -1.9435   -3.3737 H   0  0  0  0  0  0  0  0  0  0  0  0
    1.1039    0.3457   -3.1271 H   0  0  0  0  0  0  0  0  0  0  0  0
   -0.5372    0.9328   -3.4389 H   0  0  0  0  0  0  0  0  0  0  0  0
  1  2  1  0  0  0  0
  1 23  1  0  0  0  0
  1 24  1  0  0  0  0
  1 25  1  0  0  0  0
  2  3  1  0  0  0  0
  2 26  1  0  0  0  0
  2 27  1  0  0  0  0
  3  4  2  0  0  0  0
  3  5  2  0  0  0  0
  3  6  1  0  0  0  0
  6  7  2  0  0  0  0
  6 11  1  0  0  0  0
  7  8  1  0  0  0  0
  7 28  1  0  0  0  0
  8  9  2  0  0  0  0
  8 29  1  0  0  0  0
  9 10  1  0  0  0  0
  9 20  1  0  0  0  0
 10 11  2  0  0  0  0
 10 19  1  0  0  0  0
 11 12  1  0  0  0  0
 12 13  1  0  0  0  0
 13 14  1  0  0  0  0
 13 30  1  0  0  0  0
 13 31  1  0  0  0  0
 14 15  1  0  0  0  0
 14 18  1  0  0  0  0
 14 32  1  0  0  0  0
 15 16  1  0  0  0  0
 15 33  1  0  0  0  0
 15 34  1  0  0  0  0
 16 17  1  0  0  0  0
 16 35  1  0  0  0  0
 16 36  1  0  0  0  0
 17 18  1  0  0  0  0
 17 37  1  0  0  0  0
 17 38  1  0  0  0  0
 18 39  1  0  0  0  0
 18 40  1  0  0  0  0
 20 21  2  0  0  0  0
 20 22  1  0  0  0  0
M  CHG  1  22  -1
M  END
$$$$
