40
-1 1 C15ClH18O5S
C                     3.726743920786     3.300826890187    -4.744052664154
C                     4.714435298312     3.268305124640    -5.903689079441
S                     4.505733468620     1.874975946126    -7.062677062141
O                     5.530965735825     2.082372210971    -8.108325599980
O                     3.084864929085     1.820852600620    -7.461598784101
C                     4.983882147323     0.422430620631    -6.130194711254
C                     6.276308561446    -0.084143690378    -6.337256864192
C                     6.710812783481    -1.178629146306    -5.600882888485
C                     5.893409695705    -1.792171762022    -4.633328836409
C                     4.609677684320    -1.266927232336    -4.447629747387
C                     4.129950940965    -0.173522763739    -5.182950401147
O                     2.882944060839     0.346924552277    -4.946507869089
C                     1.810048733475    -0.311105801036    -5.657728501483
C                     0.502459291433     0.350245731952    -5.242717855530
C                    -0.697455426077    -0.362283529225    -5.898230780558
C                    -1.008864001146    -1.571931265585    -4.977865905156
C                    -0.364684893073    -1.237754396518    -3.599565846269
C                     0.212490140550     0.189298028524    -3.738914589165
Cl                    3.545600772375    -1.972920530533    -3.232489262707
C                     6.445628980786    -2.984644088907    -3.828863475255
O                     6.217387880560    -4.102041081811    -4.349091981786
O                     7.069320516889    -2.650801712754    -2.793349321305
H                     3.867451982350     4.231240274599    -4.182324810737
H                     2.698544747464     3.262102061751    -5.110164398907
H                     3.872302886339     2.460894474258    -4.063653323383
H                     5.754634332192     3.209346411788    -5.572519154038
H                     4.607969230404     4.138965951008    -6.559178096242
H                     6.911228338358     0.386118930236    -7.081303835368
H                     7.708800626583    -1.577833380103    -5.760382535518
H                     1.976692802030    -0.184599675742    -6.731231599456
H                     1.820476085743    -1.378684881847    -5.410305785725
H                     0.560048038572     1.403382841711    -5.537245196028
H                    -1.550844426882     0.325716733080    -5.918651612699
H                    -0.499893226470    -0.657857592829    -6.934520390792
H                    -2.088038450039    -1.739108432553    -4.896659270008
H                    -0.580060557577    -2.491564998002    -5.387983360569
H                    -1.086406650330    -1.305416280575    -2.779001972430
H                     0.439117250284    -1.943521968883    -3.373726670819
H                     1.103872652178     0.345723547555    -3.127096651939
H                    -0.537214967991     0.932779468016    -3.438851748121
