41
1 1 C15H22N3O
C                     4.648013615133    -2.021457664440    -4.463912122693
N                     4.176606886931    -0.708505339458    -4.894212852013
C                     4.947082121614     0.426695720156    -4.358506811671
C                     4.447750029367     0.958409483576    -3.001817699179
C                     3.326437077477     1.995128870374    -3.075656277225
N                     2.098015758257     1.506719472014    -3.774577582385
C                     1.416245229372     0.316652901147    -3.137658267048
C                    -0.078986117612     0.444512598246    -3.507672567311
C                    -0.185420535431     1.724878904984    -4.367309663987
C                     1.028514668775     2.549192877795    -3.948267873046
C                     3.481132419867    -0.561010527249    -6.086029147326
C                     3.387776315178    -1.552780019533    -7.097894736863
C                     3.919702215159    -2.877038099202    -7.363010672580
C                     3.443378668654    -3.235915044842    -8.582709918386
O                     2.651991948720    -2.248333122330    -9.133171647198
C                     2.623808795996    -1.229681226658    -8.237591379136
C                     1.984949993265    -0.002295322027    -8.422542068705
C                     2.142499315354     0.888954133284    -7.375792889895
N                     2.842511932092     0.617884715817    -6.246185566779
H                     5.576165851783    -2.323783166694    -4.967316519332
H                     4.844561106855    -1.988943656631    -3.389268446743
H                     3.879224074454    -2.776416751252    -4.634103054419
H                     4.956651492412     1.227891104822    -5.100708065654
H                     5.984144642791     0.092868055130    -4.238860807441
H                     5.282331394758     1.455440506933    -2.495513686597
H                     4.158552418857     0.122244613591    -2.357006107920
H                     3.029079448543     2.318115107256    -2.073606469853
H                     3.664752366337     2.875835004230    -3.629221180576
H                     2.398501718815     1.216830502062    -4.768325943431
H                     1.895045483976    -0.584162839857    -3.519722509201
H                     1.581496969184     0.372602363123    -2.059611494791
H                    -0.433970509775    -0.433728797500    -4.048950594969
H                    -0.679484800841     0.535902042289    -2.600223801642
H                    -0.122502254100     1.482475249857    -5.431687788892
H                    -1.117838527786     2.267619012232    -4.202908592416
H                     0.878059247658     3.046442784721    -2.985456063710
H                     1.363300536143     3.283988264964    -4.682969728143
H                     4.568408069137    -3.485810843835    -6.752764931431
H                     3.565698531245    -4.122453193112    -9.188636366973
H                     1.422435057540     0.240593667979    -9.316373062120
H                     1.688912825517     1.875796509476    -7.421998103880
