30   
torsion grid (-60,)
C        1.3376507962    6.5612913957    2.8885450036
C        2.6168268167    6.7960398737    3.4030236328
C        0.9444475532    5.2580801078    2.5756371480
C        3.5006659742    5.7320431495    3.6036383492
C        1.8139771754    4.1814267208    2.7684182846
C        3.0877757269    4.4436940174    3.2846541713
C        1.4769555838    0.7039033199    1.6886983970
C        0.7394989089    0.7074170707    2.8418853773
C        2.1909930219    2.0692861323    1.5679965083
C        1.3364222122    1.8748703778    3.5429746691
C        1.5504900751   -0.4390744307    0.7301156700
C       -0.0482052231   -0.4537556172    3.3506389457
C        1.0442676509   -1.7241368660    1.4170069341
C       -0.2485165924   -1.4791806027    2.2159553949
N        1.3410661349    2.8639096282    2.4348498734
O        3.1093211382    2.4261232332    0.8733405193
O        1.6400047986    2.0754547150    4.6913004669
F        3.9478319581    3.4202028779    3.4802843209
H        0.6498708931    7.3870624533    2.7318864505
H        2.9307187443    7.8064588118    3.6498660935
H       -0.0441002383    5.0525624084    2.1748596634
H        4.4993173090    5.8829738036    4.0018463302
H        0.9452999000   -0.2105987869   -0.1584825567
H        2.5792510443   -0.5546395872    0.3711169938
H        0.4866043270   -0.8990460271    4.2001511283
H       -1.0139859170   -0.1176625403    3.7463953411
H        0.8791623070   -2.5047576194    0.6675122138
H        1.8223489232   -2.0940499892    2.0962307203
H       -0.6155444251   -2.4206905543    2.6369503017
H       -1.0273272280   -1.1125647692    1.5356074515
30   
torsion grid (-45,)
C        1.4353571775    6.5957157995    2.8631334654
C        2.7131535866    6.7602236930    3.4070735225
C        0.9703583530    5.3149578930    2.5527520702
C        3.5292676833    5.6491523173    3.6421083580
C        1.7713425952    4.1951568176    2.7804218907
C        3.0442222517    4.3870273288    3.3250259551
C        1.3949211682    0.7239985165    1.6551265588
C        0.7078487898    0.6905133650    2.8225991458
C        2.0115530176    2.0990484428    1.5068520862
C        1.1085917830    1.9390950682    3.5396395314
C        1.5172580210   -0.4195634439    0.7014686951
C       -0.0011686493   -0.5081541151    3.3616431741
C        1.1130325750   -1.7279021126    1.4101752925
C       -0.1696331351   -1.5570962235    2.2441089571
N        1.2678729143    2.8923662105    2.4569890480
O        2.8553569419    2.4932135108    0.7360284670
O        1.2001658418    2.1729891599    4.7222648850
F        3.8258487413    3.3057352488    3.5472878406
H        0.8032115516    7.4597629814    2.6810606868
H        3.0798075769    7.7535543347    3.6503972385
H       -0.0185210254    5.1645730114    2.1293227098
H        4.5251399967    5.7464274443    4.0632100584
H        0.8757056189   -0.2373731684   -0.1716940383
H        2.5414036488   -0.4708705391    0.3160084790
H        0.5782314187   -0.9130737983    4.2019187826
H       -0.9730813669   -0.2216065893    3.7798805693
H        0.9767404305   -2.5235189045    0.6707194490
H        1.9314703868   -2.0428046766    2.0694715833
H       -0.4645250725   -2.5156776687    2.6828755323
H       -0.9884858020   -1.2470572818    1.5827657605
30   
torsion grid (-30,)
C        1.4995230524    6.6084358259    2.8547897561
C        2.7713451603    6.7409570553    3.4211581677
C        1.0058518852    5.3397725096    2.5388257808
C        3.5549994119    5.6103046486    3.6743125193
C        1.7748823823    4.2021675839    2.7850387639
C        3.0420005247    4.3609669400    3.3517872423
C        1.3425922696    0.7376739706    1.6252200795
C        0.6978778526    0.6844850576    2.8080884205
C        1.8921765686    2.1225881511    1.4437957365
C        0.9426480913    1.9822561204    3.5106954680
C        1.4943615347   -0.4090177145    0.6791357897
C        0.0453915743   -0.5352245960    3.3728829161
C        1.1632649201   -1.7262607589    1.4078597789
C       -0.1059306343   -1.6017636954    2.2702299799
N        1.2686724048    2.9054697509    2.4660747444
O        2.6552861005    2.5363052291    0.5975132813
O        0.8382164932    2.2486857088    4.6887537152
F        3.7858243487    3.2555731297    3.5901203633
H        0.8940197477    7.4885305316    2.6597443449
H        3.1588725422    7.7253600992    3.6683239808
H        0.0209926544    5.2142277958    2.0985591252
H        4.5451957344    5.6839622783    4.1131239626
H        0.8262391536   -0.2624897801   -0.1803990868
H        2.5105694444   -0.4194575695    0.2705389751
H        0.6561935435   -0.9111835984    4.2042331864
H       -0.9261855344   -0.2789547565    3.8102015117
H        1.0446588985   -2.5340085119    0.6785790208
H        2.0092227541   -1.9997173309    2.0508014028
H       -0.3496427764   -2.5678066543    2.7237984862
H       -0.9520588481   -1.3324866430    1.6254967293
30   
torsion grid (-15,)
C        1.5854519246    6.6039210256    2.7270993479
C        2.7930803806    6.7457513816    3.4185137900
C        1.0974381280    5.3288030777    2.4308347576
C        3.5208896988    5.6182955220    3.8123651571
C        1.8114522307    4.1935905967    2.8173691709
C        3.0184393992    4.3615293555    3.5006902167
C        1.2801237739    0.7449798666    1.6143454375
C        0.7244570935    0.6662261098    2.8367898648
C        1.7765128395    2.1404496262    1.3995181719
C        0.8828039148    1.9873595620    3.5210093819
C        1.3962813094   -0.3911937178    0.6501213676
C        0.1282310738   -0.5696608825    3.4290616548
C        1.1375412702   -1.7210287964    1.3847039583
C       -0.0755649208   -1.6286663075    2.3280313670
N        1.3301614998    2.8884589250    2.5198028986
O        2.4127006521    2.5813066402    0.4632996222
O        0.6540525107    2.2729366393    4.6789996087
F        3.7160070831    3.2591174865    3.8607833844
H        1.0246725837    7.4821719468    2.4215328989
H        3.1740782342    7.7356951067    3.6533027393
H        0.1607138416    5.1965867634    1.8975476786
H        4.4620203564    5.6997049813    4.3472461914
H        0.6721538080   -0.2504558999   -0.1636595627
H        2.3839719117   -0.3785356168    0.1770328201
H        0.7960583795   -0.9454080588    4.2154996620
H       -0.8159626022   -0.3307765739    3.9306998385
H        0.9873656871   -2.5239045020    0.6558315546
H        2.0277974370   -1.9846814736    1.9693362426
H       -0.2721321276   -2.6035324177    2.7856142355
H       -0.9660231152   -1.3685516710    1.7418173642
30   
torsion grid (0,)
C        1.7200845262    6.5517840241    2.4663586403
C        2.7072935834    6.8102419710    3.4233868336
C        1.3327511356    5.2372950643    2.1996715738
C        3.3227363537    5.7557182951    4.1041597901
C        1.9364799584    4.1721156432    2.8747923134
C        2.9368654940    4.4536028846    3.8101210681
C        1.2480389843    0.7652695887    1.5979950546
C        0.8656459794    0.6283778088    2.8794406972
C        1.7097824784    2.1714883917    1.3756497182
C        1.0473990777    1.9364130031    3.5836823240
C        1.2205679251   -0.3231247551    0.5736606275
C        0.3301411332   -0.6285487212    3.4851253158
C        1.0307084228   -1.6851293539    1.2692513082
C       -0.0438736203   -1.6241902829    2.3701274697
N        1.5624117630    2.8306223663    2.6164291875
O        2.1275224257    2.6735054569    0.3497047924
O        0.7908614560    2.2134474602    4.7381294420
F        3.5569943575    3.4258096498    4.4324805922
H        1.2472024434    7.3715679871    1.9338593375
H        3.0038490179    7.8325646172    3.6402777257
H        0.5649446193    5.0214656042    1.4635008711
H        4.0985152801    5.9247787848    4.8444702291
H        0.4031391042   -0.1307054729   -0.1341211220
H        2.1403168538   -0.3018385846   -0.0206824585
H        1.0916551580   -1.0570173931    4.1503882916
H       -0.5293126830   -0.4006760599    4.1247196051
H        0.7669156711   -2.4456965375    0.5273931155
H        1.9842790525   -1.9940686710    1.7155451966
H       -0.1999873253   -2.6190486147    2.7993733877
H       -0.9981650245   -1.3181789179    1.9230674386
30   
torsion grid (15,)
C        1.7886440337    6.4779787721    2.3765837082
C        2.6691085697    6.7900298163    3.4178813693
C        1.4743956096    5.1464113710    2.0983710888
C        3.2511362651    5.7699164369    4.1757507112
C        2.0483355193    4.1144837496    2.8491734056
C        2.9413571966    4.4500632850    3.8719247871
C        1.2315741718    0.7406320082    1.5581533402
C        0.9380075515    0.5873323488    2.8615419694
C        1.6803008610    2.1499623950    1.3254037726
C        1.1041422541    1.9081165756    3.5449571787
C        1.1243037369   -0.3321280213    0.5228883580
C        0.4151388059   -0.6677279636    3.4815707795
C        0.9513851870   -1.7009494280    1.2097462169
C       -0.0494895291   -1.6378501152    2.3780018029
N        1.7588806456    2.7485175171    2.6050249408
O        1.9529330426    2.6852987442    0.2676191683
O        0.7658183054    2.2287231276    4.6653556252
F        3.5304775053    3.4574325028    4.5766964222
H        1.3403402012    7.2702803451    1.7844321027
H        2.9070389521    7.8261269460    3.6413916945
H        0.7928898259    4.8959569232    1.2928260642
H        3.9435050557    5.9785029445    4.9854354575
H        0.2698916291   -0.1134214851   -0.1314725818
H        2.0065788133   -0.3200391352   -0.1261618191
H        1.2069718468   -1.1236870399    4.0910148918
H       -0.3967332516   -0.4288292438    4.1768108574
H        0.6262293474   -2.4444219483    0.4749928431
H        1.9248853908   -2.0352625157    1.5898401472
H       -0.1976346872   -2.6366866610    2.8007449069
H       -1.0239759584   -1.3058149044    1.9982470963
30   
torsion grid (30,)
C        1.8394372736    6.4925856204    2.3429034906
C        2.6575665491    6.7997675312    3.4346540374
C        1.5392209104    5.1635459076    2.0356547774
C        3.1900593785    5.7744104073    4.2214579979
C        2.0683545203    4.1259896560    2.8121176161
C        2.8942115442    4.4583740044    3.8916516826
C        1.2032640811    0.7681926278    1.5348888140
C        0.9765930017    0.6052896281    2.8547405979
C        1.5842495947    2.2038967980    1.2746460070
C        1.0348427033    1.9633471486    3.4727324552
C        1.0893642978   -0.3124392983    0.5089866813
C        0.5057084362   -0.6590974225    3.4962193742
C        0.9690981497   -1.6830509659    1.2046002761
C        0.0151171025   -1.6388835860    2.4124293970
N        1.8135816418    2.7493868530    2.5639768898
O        1.7317465389    2.7635491647    0.2063292236
O        0.5707298527    2.3490327910    4.5232480854
F        3.4278511478    3.4601042002    4.6339726652
H        1.4270747723    7.2885980044    1.7298972906
H        2.8836695450    7.8344022461    3.6764537513
H        0.9079079773    4.9239449630    1.1883949205
H        3.8306699773    5.9760404269    5.0743708702
H        0.2112927769   -0.1142121703   -0.1201723342
H        1.9507567668   -0.2857758994   -0.1676272951
H        1.3313571833   -1.1003156676    4.0708247194
H       -0.2806719474   -0.4326756373    4.2241488155
H        0.6286878435   -2.4332904516    0.4837698345
H        1.9630881995   -1.9992142366    1.5450807779
H       -0.0963079345   -2.6404191331    2.8400693658
H       -0.9799821350   -1.3248071082    2.0732260167
30   
torsion grid (45,)
C        1.9608687412    6.4870007482    2.3364612841
C        2.7042709006    6.7633411864    3.4873676782
C        1.6548853707    5.1686198671    1.9880900434
C        3.1543127542    5.7154659212    4.2962823676
C        2.1033404129    4.1075604238    2.7847484037
C        2.8527304070    4.4120243011    3.9279213753
C        1.1477987276    0.7750725772    1.5185571044
C        0.9962760732    0.6143713394    2.8549009998
C        1.4590895421    2.2348056712    1.2403429094
C        0.9475398582    2.0061135497    3.3934921271
C        1.0262321661   -0.3179356955    0.5079446465
C        0.5895982831   -0.6570071079    3.5255799315
C        0.9901635049   -1.6844806596    1.2214261497
C        0.0904334022   -1.6648809921    2.4709528258
N        1.8629899183    2.7260278366    2.5203412331
O        1.4593859567    2.8214548490    0.1781460737
O        0.3584832470    2.4641772365    4.3430744371
F        3.3004194414    3.3923169143    4.7005038223
H        1.6104064350    7.2991523044    1.7061458985
H        2.9353270586    7.7894795099    3.7588876547
H        1.0828354309    4.9577446975    1.0938677365
H        3.7337715288    5.8908205249    5.1973753810
H        0.1122703520   -0.1577900034   -0.0797025309
H        1.8529742596   -0.2685984569   -0.2097336868
H        1.4490090983   -1.0652816372    4.0745058076
H       -0.1780807765   -0.4456133522    4.2777744845
H        0.6466536960   -2.4547577236    0.5236009620
H        2.0100511793   -1.9587679973    1.5187771308
H        0.0368961823   -2.6661404316    2.9102506206
H       -0.9300052433   -1.3914842157    2.1748644459
30   
torsion grid (60,)
C        2.1539594365    6.7328400083    1.9842854002
C        2.7890817561    7.0171256176    3.1957069504
C        1.7978402360    5.4214778484    1.6547894402
C        3.0822374042    5.9802206773    4.0875008119
C        2.0859803759    4.3700556719    2.5359968866
C        2.7342983302    4.6842726685    3.7389673055
C        1.0113825054    1.0209235762    1.4758535710
C        1.0042373606    0.9143973032    2.8391365886
C        1.2072828672    2.5108459988    1.1006761972
C        0.8251389436    2.3406978164    3.2094352600
C        0.8405980320   -0.1227283106    0.5322788112
C        0.7117638166   -0.3409636052    3.5951292463
C        0.9160295803   -1.4562056322    1.3045716067
C        0.1434756982   -1.4063136598    2.6355702746
N        1.8237511394    2.9850593673    2.3028508369
O        0.9951219794    3.0737952505    0.0491303457
O        0.1387513273    2.9001227624    4.0238174099
F        3.0349009759    3.6734593559    4.5938218693
H        1.9255772442    7.5350220675    1.2883873927
H        3.0580117271    8.0383264318    3.4503314890
H        1.3051624960    5.2069502693    0.7160831980
H        3.5767740522    6.1587727268    5.0372972414
H       -0.1254762084   -0.0169533927    0.0202764290
H        1.5999444893   -0.0836040548   -0.2576899684
H        1.6371048068   -0.7006189353    4.0649861542
H        0.0168271492   -0.1246130272    4.4135305000
H        0.5286061073   -2.2653113058    0.6772320109
H        1.9679594256   -1.6911068282    1.5093328375
H        0.1650022140   -2.3888694465    3.1179050879
H       -0.9088848871   -1.1725503767    2.4322918647
