13   
torsion grid (-165,)
C       -0.5305095172    0.9364904954    0.6415797181
C       -0.5210551032   -0.7098462754    2.5566409419
C       -0.3656485075    0.7514400424    2.1450667534
O       -0.4286410055   -0.7471266095    3.9902261775
O       -1.3646851193    1.5396641247    2.7966008516
H       -0.1825617017    1.9233529799    0.3263895097
H        0.0189929280    0.1691972354    0.0856963336
H       -1.5899973707    0.8489270045    0.3799339216
H       -1.4993587148   -1.0803692183    2.2197563282
H        0.2715057631   -1.3195352119    2.1005752763
H        0.6359277455    1.0829897000    2.4605097460
H       -0.7380547626   -1.6100203425    4.3030105049
H       -1.3324349955    1.2902609053    3.7365345905
13   
torsion grid (-150,)
C       -0.5273459939    0.9357709481    0.6405565545
C       -0.4863688680   -0.7101577237    2.5569328665
C       -0.3783459780    0.7573682251    2.1511420816
O       -0.4251805442   -0.7491637284    3.9916981322
O       -1.4195694766    1.5023116395    2.7889803630
H        0.0005216910    1.8219967988    0.2805955295
H       -0.1667180381    0.0571390600    0.0947715788
H       -1.5897745428    1.0521592856    0.4056063977
H       -1.4414053440   -1.1171934619    2.1957794676
H        0.3399370921   -1.2863001408    2.1172687834
H        0.6028971393    1.1247400660    2.4881527673
H       -0.7082202350   -1.6242326049    4.2954285832
H       -1.3849364778    1.2592893122    3.7305931519
13   
torsion grid (-135,)
C       -0.4045099306    0.8243285899    0.5924221667
C       -1.1071274107   -0.4520051680    2.6622329754
C       -0.0139830828    0.3884206150    2.0097074417
O       -0.6668481361   -0.7434676741    3.9978171988
O        0.2105880878    1.5654342317    2.7929017097
H        0.4234949399    0.7237914534   -0.1132334679
H       -1.2597395036    0.2552417631    0.2118942586
H       -0.7017341956    1.8761701084    0.6224497440
H       -2.0443854116    0.1222641007    2.6766224766
H       -1.2619398146   -1.3786749604    2.0914596905
H        0.9030247087   -0.2190141301    1.9890765856
H       -1.4139962591   -1.0906715875    4.5071314451
H        0.3254467271    1.2599167383    3.7096541737
13   
torsion grid (-120,)
C       -0.4067351631    0.8230478171    0.5889967814
C       -1.0927871646   -0.4766345573    2.6549484223
C       -0.0291861395    0.4104063765    2.0191225049
O       -0.6498265363   -0.7693674332    3.9892202334
O        0.1394415939    1.5984245776    2.8010615396
H        0.3330386084    0.4841928713   -0.1409104494
H       -1.3811048049    0.4219811942    0.2886602797
H       -0.4621224051    1.9129986586    0.5387814160
H       -2.0497556639    0.0639999641    2.6714768719
H       -1.2121830786   -1.3998489044    2.0698062107
H        0.9146737100   -0.1546114696    2.0172784907
H       -1.3842571869   -1.1591887997    4.4861525713
H        0.2417772965    1.3020065541    3.7222837799
13   
torsion grid (-105,)
C       -0.4120366284    0.8242536150    0.5895766542
C       -1.0780613364   -0.5014209678    2.6458210095
C       -0.0473211029    0.4324772146    2.0261995890
O       -0.6315351597   -0.7921682831    3.9795770596
O        0.0656146580    1.6286309319    2.8057216935
H        0.1907294448    0.2701284521   -0.1359850663
H       -1.4637114041    0.6184866562    0.3607729859
H       -0.2249624498    1.8908181482    0.4476727360
H       -2.0546661134    0.0025242799    2.6636436745
H       -1.1600712657   -1.4213963191    2.0490555067
H        0.9218931207   -0.0885337903    2.0371789956
H       -1.3516237046   -1.2208414867    4.4655010901
H        0.1503453018    1.3405807295    3.7313053846
13   
torsion grid (-90,)
C       -0.4158859008    0.8249368714    0.5920033256
C       -1.0596972784   -0.5295290367    2.6330366838
C       -0.0605274144    0.4476394539    2.0292133564
O       -0.6194587468   -0.8019919938    3.9731796729
O       -0.0054583234    1.6470519176    2.8085180111
H        0.0175341328    0.1087295787   -0.1135519473
H       -1.4991458785    0.8287359471    0.4274356393
H       -0.0174074254    1.8163421808    0.3652642318
H       -2.0568959429   -0.0677407556    2.6383425133
H       -1.0946378931   -1.4519828135    2.0356914140
H        0.9301538055   -0.0325244086    2.0482026890
H       -1.3290198292   -1.2579036857    4.4497154652
H        0.0631897592    1.3632749633    3.7366802219
13   
torsion grid (-75,)
C       -0.4137005877    0.8366716766    0.5993840583
C       -1.0333745543   -0.5469424225    2.6248979024
C       -0.0635675223    0.4691029481    2.0355159354
O       -0.6056307232   -0.7940843820    3.9744410641
O       -0.0706614234    1.6680410839    2.8157275262
H       -0.1645641335    0.0148006757   -0.0802123475
H       -1.4825245772    1.0516181598    0.4927734767
H        0.1540218713    1.7199439007    0.2965417544
H       -2.0490045231   -0.1275896161    2.6107549146
H       -1.0187661736   -1.4734455749    2.0334390033
H        0.9446038422    0.0262169722    2.0639965276
H       -1.3031258722   -1.2783493313    4.4406962017
H       -0.0006392819    1.3861586234    3.7442629949
13   
torsion grid (-60,)
C       -0.4250061906    0.8296687716    0.5984163934
C       -1.0133513621   -0.5834150832    2.6099154493
C       -0.0726418778    0.4698772925    2.0344568025
O       -0.6160437997   -0.7903849812    3.9756681026
O       -0.1435598627    1.6639549409    2.8170282616
H       -0.3682933197   -0.0497561008   -0.0515639663
H       -1.4355656368    1.2477192723    0.5445591223
H        0.2728263178    1.5825719319    0.2218078814
H       -2.0471515393   -0.2145622094    2.5577633330
H       -0.9350802026   -1.5174247378    2.0359123877
H        0.9504557067    0.0634010897    2.0734144615
H       -1.3118867291   -1.2847178804    4.4335836886
H       -0.0731999303    1.3815892876    3.7454547923
13   
torsion grid (-45,)
C       -0.4289339420    0.8286416778    0.5993274563
C       -0.9878610553   -0.6070273198    2.6014581981
C       -0.0766937454    0.4811461379    2.0405725989
O       -0.6166053288   -0.7879033351    3.9779683807
O       -0.2143094713    1.6691737029    2.8235602866
H       -0.5724919961   -0.0713962852   -0.0072610144
H       -1.3392161140    1.4356840340    0.5778821776
H        0.3697011785    1.4230303493    0.1461791734
H       -2.0346542203   -0.2824689583    2.5197679075
H       -0.8554653100   -1.5411436535    2.0376962669
H        0.9593843583    0.1128046862    2.0985431084
H       -1.3044783500   -1.3035733151    4.4241479420
H       -0.1305866252    1.3899316337    3.7518473187
13   
torsion grid (-30,)
C       -0.4347631952    0.8400224206    0.6002964210
C       -0.9592133400   -0.6195654363    2.5960304763
C       -0.0844942739    0.5060505370    2.0503832899
O       -0.6063227741   -0.7860290282    3.9787358331
O       -0.2868928754    1.6844169021    2.8353377985
H       -0.7875938204   -0.0390500635    0.0514633284
H       -1.2058881712    1.6153727458    0.5869482604
H        0.4341677670    1.2424273107    0.0716546317
H       -2.0169694169   -0.3386812362    2.4941805263
H       -0.7772376014   -1.5467130051    2.0344269958
H        0.9640374560    0.1810460661    2.1284208549
H       -1.2803043653   -1.3297085712    4.4126579518
H       -0.1937017172    1.4075079379    3.7635174102
13   
torsion grid (-15,)
C       -0.4275521338    0.8250534132    0.5950602881
C       -0.9379115504   -0.6472720513    2.5905235111
C       -0.0987742904    0.5108212757    2.0598345631
O       -0.5965481260   -0.8080738931    3.9762477723
O       -0.3624164400    1.6832681182    2.8377032369
H       -0.9928137578    0.0184438102    0.1165479638
H       -1.0188922133    1.7432859930    0.5545030633
H        0.4793014623    0.9928335013    0.0076463390
H       -2.0036422864   -0.4031427902    2.4765600992
H       -0.7166048405   -1.5637901021    2.0251938433
H        0.9593646205    0.2298264950    2.1671272948
H       -1.2499756936   -1.3864457472    4.3966133000
H       -0.2725229281    1.4138013519    3.7684418674
13   
torsion grid (0,)
C       -0.4206438829    0.8219448677    0.5908472124
C       -0.9137710984   -0.6656506278    2.5839789911
C       -0.1179211232    0.5266434072    2.0670413610
O       -0.5749254449   -0.8250987081    3.9703411500
O       -0.4393541853    1.6921228224    2.8349089779
H       -1.1818955609    0.1465833556    0.1845908760
H       -0.8022507317    1.8421681417    0.5062032113
H        0.4718986320    0.7352888310   -0.0340428480
H       -1.9872445770   -0.4604609420    2.4660401653
H       -0.6557129147   -1.5677019259    2.0106697078
H        0.9491964492    0.2940772413    2.1987682270
H       -1.2022085706   -1.4398329956    4.3789047923
H       -0.3686435094    1.4272124664    3.7686245570
13   
torsion grid (15,)
C       -0.4186171348    0.8351242211    0.5983621951
C       -0.8845522135   -0.6736658408    2.5822836930
C       -0.1360978553    0.5527904295    2.0782576410
O       -0.5469475439   -0.8297221976    3.9696509522
O       -0.5129569556    1.7072323171    2.8372611069
H       -1.3339769318    0.3362815872    0.2587781097
H       -0.5747550506    1.9084342611    0.4666344515
H        0.4032893782    0.5094052486   -0.0442663845
H       -1.9647126603   -0.5108714571    2.4607291571
H       -0.5882043693   -1.5601981293    2.0031794972
H        0.9390456503    0.3691704862    2.2251777607
H       -1.1513013287   -1.4725568677    4.3695457741
H       -0.4644869866    1.4428744346    3.7725103420
13   
torsion grid (30,)
C       -0.4214645793    0.8428161606    0.6022259432
C       -0.8562090297   -0.6860294102    2.5749437534
C       -0.1521803572    0.5701901318    2.0809995790
O       -0.5298121912   -0.8278470129    3.9669461250
O       -0.5846200672    1.7095328352    2.8314058536
H       -1.4367955495    0.5399640259    0.3200601459
H       -0.3507363728    1.9180411855    0.4195913173
H        0.2876421429    0.3152780991   -0.0415922076
H       -1.9404944972   -0.5678184649    2.4405933059
H       -0.5168415227   -1.5600628866    2.0006341577
H        0.9288132593    0.4311632431    2.2383112420
H       -1.1106123541   -1.4969120126    4.3586848491
H       -0.5505293483    1.4451957479    3.7671738401
13   
torsion grid (45,)
C       -0.4279691585    0.8297438816    0.5998423781
C       -0.8304993266   -0.7135114814    2.5643396222
C       -0.1677457273    0.5687513652    2.0777330746
O       -0.5265768553   -0.8321671782    3.9639910240
O       -0.6595327412    1.6895577714    2.8176987993
H       -1.4930789634    0.7226742616    0.3651949418
H       -0.1429237548    1.8570407607    0.3577598342
H        0.1418271182    0.1410096698   -0.0312887954
H       -1.9158104230   -0.6413242407    2.4079912746
H       -0.4434448729   -1.5769996085    2.0048581582
H        0.9163001153    0.4711276727    2.2474636326
H       -1.0874368089   -1.5216673966    4.3492626245
H       -0.6249933473    1.4301936050    3.7547379433
13   
torsion grid (60,)
C       -0.4467033124    0.8355257601    0.6028834109
C       -0.7988008727   -0.7307141360    2.5550669371
C       -0.1808232653    0.5797915091    2.0792509958
O       -0.5320909892   -0.8255576786    3.9642387012
O       -0.7290245291    1.6720702820    2.8207663590
H       -1.5221135098    0.9177067190    0.4149332624
H        0.0269144889    1.7716802293    0.2950198206
H       -0.0398700760    0.0264618167   -0.0131214974
H       -1.8809421052   -0.7123076919    2.3648781998
H       -0.3530958914   -1.5788802843    2.0166174567
H        0.9050898025    0.5221607254    2.2549921474
H       -1.0839151058   -1.5264253527    4.3417551108
H       -0.6880019255    1.4092751321    3.7566697459
13   
torsion grid (75,)
C       -0.4611753596    0.8516003160    0.6073639059
C       -0.7679899822   -0.7323691715    2.5508917888
C       -0.1952104595    0.6041447395    2.0872507243
O       -0.5284839372   -0.8159278306    3.9653878358
O       -0.8032975805    1.6654032047    2.8275760719
H       -1.5099392334    1.1213647289    0.4535637693
H        0.1734431932    1.6574227460    0.2289841542
H       -0.2371848638   -0.0448763617    0.0180970896
H       -1.8454274011   -0.7602589970    2.3359876663
H       -0.2741588822   -1.5608318682    2.0239728486
H        0.8890335332    0.5879410726    2.2784721151
H       -1.0629684478   -1.5352011408    4.3329804795
H       -0.7458951335    1.4068914515    3.7638424565
13   
torsion grid (90,)
C       -0.4610898184    0.8523107541    0.6067059418
C       -0.7344005635   -0.7435146387    2.5471248198
C       -0.2048803976    0.6150685461    2.0949811227
O       -0.5249355518   -0.8189207155    3.9663948796
O       -0.8681319073    1.6480304710    2.8292266542
H       -1.4396273960    1.3200716429    0.4717694689
H        0.3091191813    1.4894194133    0.1643054958
H       -0.4488123170   -0.0930919218    0.0519129140
H       -1.8044678533   -0.8143418169    2.3060640131
H       -0.1950866137   -1.5506452027    2.0316739258
H        0.8746111138    0.6399124369    2.3077623468
H       -1.0391102723   -1.5587202472    4.3219617407
H       -0.8095344585    1.3912562966    3.7660187916
13   
torsion grid (105,)
C       -0.4671139778    0.8643632464    0.6059465211
C       -0.7048156005   -0.7411366394    2.5490004216
C       -0.2304903803    0.6390472920    2.1045538546
O       -0.5005107028   -0.8149337704    3.9687226573
O       -0.9504378311    1.6437031876    2.8268022580
H       -1.3223694266    1.5310225507    0.4731413016
H        0.4058894250    1.3045997543    0.1174074379
H       -0.6855666953   -0.0765631025    0.0880595448
H       -1.7697233700   -0.8543215402    2.3011254984
H       -0.1302862213   -1.5224022295    2.0312601004
H        0.8410255085    0.7139381341    2.3421389180
H       -0.9852806673   -1.5774482752    4.3176002931
H       -0.8932720675    1.3924513953    3.7652504160
13   
torsion grid (120,)
C       -0.4777496699    0.8855208267    0.6163058859
C       -0.6806016181   -0.7286064611    2.5611476784
C       -0.2659368984    0.6703764170    2.1219020150
O       -0.4687857593   -0.8015666602    3.9796245055
O       -1.0366656470    1.6481943764    2.8297696665
H       -1.1503581524    1.7347123460    0.4738315055
H        0.4604572297    1.1056320516    0.1004190661
H       -0.9324695693    0.0129668005    0.1344884638
H       -1.7411433321   -0.8832054982    2.3168269424
H       -0.0775409357   -1.4825909425    2.0350191256
H        0.7960517212    0.7967168631    2.3795604637
H       -0.9028005605   -1.5969640850    4.3220889141
H       -0.9907834801    1.3984486637    3.7691993327
13   
torsion grid (135,)
C       -0.4789338494    0.8766936572    0.6141729837
C       -0.6495684545   -0.7410124052    2.5592091122
C       -0.2922805608    0.6729233881    2.1216367892
O       -0.4411084117   -0.8057700062    3.9789398667
O       -1.1110154570    1.6246330663    2.8107335479
H       -0.9292894594    1.8594146340    0.4515342066
H        0.4778239360    0.8654278128    0.0848329952
H       -1.1419461013    0.1270962990    0.1691826050
H       -1.7018751426   -0.9390502231    2.3112987894
H       -0.0144761867   -1.4694989890    2.0347539146
H        0.7592950649    0.8492528163    2.3940075743
H       -0.8441855486   -1.6184294945    4.3188081960
H       -1.0862672050    1.3717063027    3.7500879852
13   
torsion grid (150,)
C       -0.4929097840    0.8938094787    0.6243947211
C       -0.6213712955   -0.7339579698    2.5615978414
C       -0.3183994698    0.6937294939    2.1283835628
O       -0.4254058202   -0.7892454222    3.9839113348
O       -1.1823039712    1.6119640915    2.8059125596
H       -0.7180224205    1.9478235942    0.4387929747
H        0.4288824918    0.6591539052    0.0837576514
H       -1.3171045659    0.2974406918    0.2192643830
H       -1.6619328126   -0.9757009487    2.3036127617
H        0.0487620430   -1.4359026454    2.0448485245
H        0.7235601991    0.9141776633    2.4079807476
H       -0.7903070087   -1.6218350354    4.3187074723
H       -1.1669020128    1.3551714498    3.7442871199
13   
torsion grid (165,)
C       -0.5022736532    0.9076405647    0.6323301215
C       -0.5888708235   -0.7297658932    2.5597254491
C       -0.3346271354    0.7102914437    2.1331560473
O       -0.4190424092   -0.7761643388    3.9861087664
O       -1.2446116614    1.5894574763    2.8000961751
H       -0.5189011004    1.9789443887    0.4127451773
H        0.3360138888    0.4671707812    0.0831390000
H       -1.4410015659    0.4736802801    0.2725667960
H       -1.6134743984   -1.0136447553    2.2818869346
H        0.1194309319   -1.4047998710    2.0587038643
H        0.6962573824    0.9690507530    2.4224127300
H       -0.7609483508   -1.6206353326    4.3153163075
H       -1.2301143945    1.3315979009    3.7381003348
13   
torsion grid (180,)
C       -0.5197097541    0.9262660842    0.6386676102
C       -0.5522179185   -0.7179474589    2.5579566360
C       -0.3476351628    0.7337935616    2.1384217734
O       -0.4266388316   -0.7562328474    3.9892772001
O       -1.3001257095    1.5688229397    2.8007909215
H       -0.3484586932    1.9731927691    0.3739163445
H        0.1894475987    0.3062424255    0.0801283419
H       -1.5371126858    0.6603951466    0.3336228170
H       -1.5527932178   -1.0489574131    2.2467571292
H        0.2028838271   -1.3605190907    2.0836724460
H        0.6716037203    1.0282722638    2.4349310484
H       -0.7576815708   -1.6078309274    4.3108922493
H       -1.2791386464    1.3092126252    3.7382384559
