
  -OEChem-12122420523D

 25 26  0     0  0  0  0  0  0999 V2000
    6.9274    0.3450    2.2877 C   0  0  0  0  0  0  0  0  0  0  0  0
    6.6215    1.3430    3.2165 C   0  0  0  0  0  0  0  0  0  0  0  0
    5.9775    0.0196    1.3202 C   0  0  0  0  0  0  0  0  0  0  0  0
    0.9577   -0.9907    1.1676 C   0  0  0  0  0  0  0  0  0  0  0  0
    1.3560    0.7522    2.7686 C   0  0  0  0  0  0  0  0  0  0  0  0
    5.3751    1.9755    3.1358 C   0  0  0  0  0  0  0  0  0  0  0  0
    0.2425   -1.6663    2.1540 C   0  0  0  0  0  0  0  0  0  0  0  0
    1.5278    0.2543    1.4748 C   0  0  0  0  0  0  0  0  0  0  0  0
    4.7573    0.7078    1.3248 C   0  0  0  0  0  0  0  0  0  0  0  0
    0.6139   -0.0192    3.6676 C   0  0  0  0  0  0  0  0  0  0  0  0
    3.7125    0.3630    0.2981 C   0  0  0  0  0  0  0  0  0  0  0  0
    2.3376    1.0114    0.4413 C   0  0  0  0  0  0  0  0  0  0  0  0
    4.4566    1.6711    2.2134 N   0  0  0  0  0  0  0  0  0  0  0  0
    0.0662   -1.1888    3.3990 N   0  0  0  0  0  0  0  0  0  0  0  0
    3.9493   -0.4395   -0.5935 O   0  0  0  0  0  0  0  0  0  0  0  0
    0.3633    0.6688    5.4555 Br  0  0  0  0  0  0  0  0  0  0  0  0
    7.8847   -0.1687    2.3194 H   0  0  0  0  0  0  0  0  0  0  0  0
    7.3278    1.6299    3.9901 H   0  0  0  0  0  0  0  0  0  0  0  0
    6.1498   -0.7462    0.5711 H   0  0  0  0  0  0  0  0  0  0  0  0
    1.0744   -1.4257    0.1791 H   0  0  0  0  0  0  0  0  0  0  0  0
    1.7958    1.6961    3.0668 H   0  0  0  0  0  0  0  0  0  0  0  0
    5.1065    2.7572    3.8442 H   0  0  0  0  0  0  0  0  0  0  0  0
   -0.2133   -2.6324    1.9470 H   0  0  0  0  0  0  0  0  0  0  0  0
    1.8535    0.9512   -0.5356 H   0  0  0  0  0  0  0  0  0  0  0  0
    2.4449    2.0542    0.7420 H   0  0  0  0  0  0  0  0  0  0  0  0
  1  2  1  0  0  0  0
  1  3  2  0  0  0  0
  1 17  1  0  0  0  0
  2  6  2  0  0  0  0
  2 18  1  0  0  0  0
  3  9  1  0  0  0  0
  3 19  1  0  0  0  0
  4  7  2  0  0  0  0
  4  8  1  0  0  0  0
  4 20  1  0  0  0  0
  5  8  2  0  0  0  0
  5 10  1  0  0  0  0
  5 21  1  0  0  0  0
  6 13  1  0  0  0  0
  6 22  1  0  0  0  0
  7 14  1  0  0  0  0
  7 23  1  0  0  0  0
  8 12  1  0  0  0  0
  9 11  1  0  0  0  0
  9 13  2  0  0  0  0
 10 14  2  0  0  0  0
 10 16  1  0  0  0  0
 11 12  1  0  0  0  0
 11 15  2  0  0  0  0
 12 24  1  0  0  0  0
 12 25  1  0  0  0  0
M  END
$$$$
