25
0 1 BrC12H9N2O
C                     5.210139129349    -0.709059414456    -2.380816574100
C                     4.286942092224    -0.084625881944    -3.223578315363
C                     5.108158944282    -0.498527568259    -1.006223983668
C                     1.416580431385    -0.552536288689     2.539242044313
C                     0.536885872684     0.401512721753     0.520233729510
C                     3.299548191667     0.727407999224    -2.652902816161
C                     0.322606541650    -1.415031667275     2.550604600882
C                     1.530152222084     0.386347952841     1.502423669627
C                     4.082091804775     0.329170730944    -0.532196806961
C                    -0.512936804409    -0.513008248624     0.645322612399
C                     3.945044718157     0.559238884282     0.948660726996
C                     2.717517465001     1.325823317066     1.435100469568
N                     3.191719714696     0.935541942392    -1.336777893880
N                    -0.641613731041    -1.400313513345     1.612871954798
O                     4.769364829423     0.111038513557     1.732764243394
Br                   -1.895954224124    -0.490188280471    -0.703538291655
H                     5.990262190643    -1.347163430565    -2.787426611210
H                     4.324315920658    -0.219817562134    -4.300665160160
H                     5.790608153522    -0.954158841172    -0.296369670957
H                     2.170281177124    -0.611676197110     3.319201489306
H                     0.588345086106     1.088273756866    -0.315881429567
H                     2.565779122530     1.228243764391    -3.282139155745
H                     0.204484440784    -2.152931303214     3.341580298293
H                     2.500682287416     2.153373155602     0.758868267037
H                     2.953688978951     1.707554172284     2.430579277136
