17   
torsion grid (-165,)
C        0.3114803794   -0.4491575924    0.8270364710
C        2.6484433292   -0.9949645782    0.4936049348
C        0.4443949641   -0.8279319403    2.1422125137
C        2.7137146319   -1.3598062644    1.8207291886
C        1.4281184600   -0.5167585422   -0.0349960521
C        1.7249665307   -1.7216640327    4.0463767754
N        2.7737234996   -0.6390527229   -3.0810886860
N        1.2213541013   -0.1148913883   -1.3411079331
N        2.0987850622   -0.4314149439   -2.1943314031
N        1.6315915823   -1.2746960407    2.6358181730
H       -0.6444882611   -0.0968087509    0.4558820065
H        3.5444990235   -1.0742871827   -0.1132667137
H       -0.3871054024   -0.7955785630    2.8369758341
H        3.6302575221   -1.7266987442    2.2689187844
H        1.4541192370   -2.7774308308    4.1132841284
H        2.7444813965   -1.5760682098    4.4012414758
H        1.0482609434   -1.1240765994    4.6561250010
17   
torsion grid (-150,)
C        0.3366021711   -0.4167346195    0.8224650446
C        2.6903089473   -0.9125812996    0.5241547838
C        0.4512171926   -0.8315107087    2.1297703506
C        2.7363443506   -1.3162078129    1.8414317202
C        1.4739886540   -0.4358546684   -0.0120522871
C        1.7070533424   -1.7593298807    4.0330592260
N        2.6032133536   -0.8784486488   -3.1167321645
N        1.3006957319   -0.0002645532   -1.3170040669
N        2.0412006699   -0.5091431845   -2.2033767472
N        1.6354881915   -1.2718787663    2.6342595816
H       -0.6182684824   -0.0733256830    0.4401418428
H        3.5980178044   -0.9551005913   -0.0690936951
H       -0.3956285520   -0.8403665826    2.8064881216
H        3.6495345513   -1.6802022640    2.2987670923
H        1.4570857843   -2.8219372318    4.0614562282
H        2.7152472634   -1.6038728126    4.4149867033
H        1.0044960261   -1.1945276188    4.6446927646
17   
torsion grid (-135,)
C        0.3741557894   -0.4003267958    0.8079860627
C        2.7406972483   -0.8456002419    0.5596677696
C        0.4612125788   -0.8422110199    2.1105861947
C        2.7611306372   -1.2791921208    1.8690880859
C        1.5316008444   -0.3767717450    0.0051479668
C        1.6859928153   -1.7876972390    4.0243384457
N        2.3801000668   -1.0568938895   -3.1495959179
N        1.4040154947    0.0938537761   -1.3000006114
N        1.9624745402   -0.5654310691   -2.2153852601
N        1.6398338953   -1.2718130286    2.6339200964
H       -0.5768583955   -0.0657103018    0.4086352074
H        3.6615419117   -0.8555720057   -0.0144287720
H       -0.4027629968   -0.8843113053    2.7641142009
H        3.6684728658   -1.6372623991    2.3424108141
H        1.4507426017   -2.8539804302    4.0236384666
H        2.6828771208   -1.6265845557    4.4324814753
H        0.9613699817   -1.2457825556    4.6308102743
17   
torsion grid (-120,)
C        0.8511496137    0.1714261958    0.9202431379
C        2.6595329150   -1.3714327393    0.4685111238
C        0.8115240485   -0.3046963084    2.2155230239
C        2.5681587896   -1.8084647739    1.7748123908
C        1.7982022395   -0.3507113172    0.0210676510
C        1.5633709837   -1.8017814124    4.0193740227
N        1.4658729404   -1.1735462586   -3.2041658569
N        1.8507777046    0.1754453396   -1.2756007379
N        1.6486006374   -0.6039281775   -2.2381442966
N        1.6609189668   -1.2777446421    2.6337984078
H        0.1645786505    0.9495738569    0.6054870801
H        3.4059427293   -1.8064960453   -0.1879473418
H        0.0968848450    0.0617271938    2.9437646589
H        3.2143111378   -2.5838633425    2.1709209026
H        0.8835554785   -2.6560151077    4.0356074774
H        2.5535290589   -2.1055689770    4.3568428535
H        1.1896862607   -1.0152104111    4.6733200017
17   
torsion grid (-105,)
C        0.8818493916    0.1274243436    0.8809809740
C        2.7281919222   -1.3868512699    0.5023736192
C        0.8120877147   -0.3334308737    2.1820701512
C        2.6084556301   -1.8092674137    1.8124064298
C        1.8552358673   -0.3978850439    0.0142557106
C        1.5389714905   -1.7918552737    4.0262214769
N        1.1954913410   -1.0283188935   -3.2143078031
N        1.9846781362    0.1256278917   -1.2842945036
N        1.5499981558   -0.5445870468   -2.2483562720
N        1.6654236342   -1.2855778523    2.6357783784
H        0.1970540718    0.8968517654    0.5414690622
H        3.5026493313   -1.8092403239   -0.1290242753
H        0.0765727171    0.0358191155    2.8878091405
H        3.2579747396   -2.5658069691    2.2383100048
H        0.8747677898   -2.6583085792    4.0349166843
H        2.5247534363   -2.0724768188    4.3949305425
H        1.1324416303   -1.0034036846    4.6578751783
17   
torsion grid (-90,)
C        0.9013331143    0.0651843285    0.8359933664
C        2.7866157672   -1.4151822830    0.5334533614
C        0.8098099132   -0.3703373366    2.1445974829
C        2.6465038241   -1.8115714377    1.8499981582
C        1.8952275182   -0.4694739929   -0.0020748552
C        1.5228903631   -1.7725534785    4.0370136551
N        0.9641029270   -0.8141271889   -3.2127969262
N        2.0973675022    0.0403596919   -1.2986270086
N        1.4622223029   -0.4614298101   -2.2534112216
N        1.6713233152   -1.2943550883    2.6387616795
H        0.2143142618    0.8211751181    0.4711995310
H        3.5862077221   -1.8278681045   -0.0721613119
H        0.0583609878    0.0074605293    2.8286887976
H        3.3034843541   -2.5427835743    2.3074340073
H        0.8770988022   -2.6527542638    4.0495078091
H        2.5053056313   -2.0235262572    4.4348387102
H        1.0844286933   -0.9795037788    4.6409992637
17   
torsion grid (-75,)
C        0.9176190484    0.0000319829    0.7891266849
C        2.8341879571   -1.4532578624    0.5592175928
C        0.8082645851   -0.4051283480    2.1051416648
C        2.6769849052   -1.8179539090    1.8820880352
C        1.9288866434   -0.5478746849   -0.0224099650
C        1.5088945960   -1.7473451567    4.0452409173
N        0.7812049714   -0.5676583373   -3.1774980594
N        2.1877570589   -0.0697347222   -1.3176261021
N        1.3937227715   -0.3708201615   -2.2406513976
N        1.6759301663   -1.3015134133    2.6389696803
H        0.2266145137    0.7400353322    0.3993192642
H        3.6527228410   -1.8632388999   -0.0221976655
H        0.0434519913   -0.0159305183    2.7677255654
H        3.3392902839   -2.5242589231    2.3698893583
H        0.8781346440   -2.6381940200    4.0683608506
H        2.4875838226   -1.9710214836    4.4678257736
H        1.0453462001   -0.9474238017    4.6208923011
17   
torsion grid (-60,)
C        0.9257830942   -0.0668080135    0.7432974697
C        2.8735157430   -1.4894417790    0.5784647196
C        0.8054963867   -0.4398538206    2.0664467419
C        2.7039372943   -1.8208867578    1.9068194955
C        1.9556432700   -0.6219313645   -0.0434797134
C        1.5011572368   -1.7197272278    4.0506800898
N        0.6455597585   -0.3176149760   -3.1100237201
N        2.2442465389   -0.1918570644   -1.3424185834
N        1.3402107153   -0.2835418176   -2.2123186688
N        1.6814820950   -1.3056693325    2.6371535620
H        0.2251065037    0.6509480763    0.3293800950
H        3.7068104433   -1.8991004647    0.0183288854
H        0.0265873700   -0.0440003834    2.7083597647
H        3.3727705337   -2.5011872934    2.4217898542
H        0.8863835608   -2.6212864828    4.0878723054
H        2.4771640566   -1.9147453270    4.4933380735
H        1.0147423993   -0.9145828980    4.5997241277
17   
torsion grid (-45,)
C        0.9249922168   -0.1331955277    0.7014147642
C        2.9013096640   -1.5242065664    0.5917381908
C        0.8005216119   -0.4740178158    2.0316175223
C        2.7250939545   -1.8235094191    1.9249333795
C        1.9740555507   -0.6883837068   -0.0629967104
C        1.4992952946   -1.6899688420    4.0550142613
N        0.5662553194   -0.0711187034   -3.0277209038
N        2.2692647056   -0.3178411943   -1.3711511523
N        1.3069157673   -0.2008977751   -2.1779816272
N        1.6863036398   -1.3081924267    2.6340270326
H        0.2107522482    0.5583072727    0.2662290379
H        3.7449690324   -1.9359642481    0.0489899525
H        0.0078141778   -0.0761329960    2.6551343758
H        3.4010066862   -2.4787458484    2.4625710848
H        0.9012199606   -2.6018436902    4.1103609265
H        2.4742197762   -1.8549923885    4.5121755025
H        0.9926073941   -0.8805830509    4.5790588621
17   
torsion grid (-30,)
C        0.9131766391   -0.1980473825    0.6665375283
C        2.9156911458   -1.5568924166    0.5987100726
C        0.7923841850   -0.5067357675    2.0042669078
C        2.7398340860   -1.8244460915    1.9370259231
C        1.9792552100   -0.7480284055   -0.0798163127
C        1.5039686674   -1.6590998582    4.0606373499
N        0.5489342579    0.1637948416   -2.9508491007
N        2.2638560805   -0.4446924777   -1.4016458428
N        1.2953269203   -0.1251915465   -2.1476162315
N        1.6902801246   -1.3084868455    2.6320009966
H        0.1825052106    0.4648383674    0.2144831085
H        3.7657906848   -1.9709947890    0.0679929712
H       -0.0122705678   -0.1106033893    2.6134696818
H        3.4247959445   -2.4547806627    2.4925723240
H        0.9169043210   -2.5766655781    4.1368942900
H        2.4795707437   -1.8014956919    4.5239954101
H        0.9865933467   -0.8437592332    4.5647554226
17   
torsion grid (-15,)
C        0.8893872993   -0.2613617789    0.6400713840
C        2.9162926482   -1.5875410666    0.6001512456
C        0.7788864539   -0.5393375811    1.9850277709
C        2.7483301146   -1.8255631823    1.9438949443
C        1.9703859737   -0.8007874442   -0.0936444476
C        1.5160539091   -1.6275672547    4.0670472556
N        0.5925175682    0.3873752855   -2.8856851666
N        2.2316970966   -0.5654014016   -1.4299889549
N        1.3059632170   -0.0545459618   -2.1238006726
N        1.6926278757   -1.3084924364    2.6301096496
H        0.1393181644    0.3703670886    0.1755076982
H        3.7694200045   -2.0039691129    0.0761665474
H       -0.0355416505   -0.1488286003    2.5848061090
H        3.4446186854   -2.4317414830    2.5120831206
H        0.9489096567   -2.5552825955    4.1677678358
H        2.4952692094   -1.7374625200    4.5317428829
H        0.9824607738   -0.8111468816    4.5521572966
17   
torsion grid (0,)
C        0.8557938184   -0.3225730675    0.6218939512
C        2.9070481660   -1.6119180152    0.5967657772
C        0.7609130293   -0.5717891406    1.9735993158
C        2.7526242680   -1.8229428287    1.9462611154
C        1.9494478301   -0.8459222037   -0.1049326183
C        1.5330604594   -1.5975130537    4.0746062500
N        0.6871992007    0.5877836191   -2.8351248957
N        2.1761114179   -0.6755407891   -1.4561319553
N        1.3342488350    0.0084572106   -2.1070721473
N        1.6941229983   -1.3073076243    2.6297779785
H        0.0843289076    0.2755355731    0.1480785244
H        3.7611063625   -2.0289505784    0.0748058940
H       -0.0615566972   -0.1909125503    2.5685894601
H        3.4628733344   -2.4051479921    2.5221641282
H        0.9794488554   -2.5303977700    4.2000699758
H        2.5172901084   -1.6842352908    4.5335636637
H        0.9925361057   -0.7779124250    4.5465000811
17   
torsion grid (15,)
C        0.8136900640   -0.3803140454    0.6122682769
C        2.8893289099   -1.6292976629    0.5893305587
C        0.7383050472   -0.6033225366    1.9698848744
C        2.7533552497   -1.8167645758    1.9446837916
C        1.9169720788   -0.8839892135   -0.1134579172
C        1.5541399732   -1.5702146536    4.0820543847
N        0.8275523175    0.7617712429   -2.7986620669
N        2.0991759501   -0.7727741160   -1.4788493947
N        1.3784045042    0.0626202004   -2.0968596001
N        1.6941841825   -1.3055616303    2.6299965162
H        0.0205345605    0.1835311811    0.1321942201
H        3.7428273178   -2.0447010302    0.0651539704
H       -0.0897960032   -0.2349415179    2.5649439187
H        3.4798883055   -2.3752908844    2.5237368660
H        1.0151675517   -2.5081114747    4.2316105090
H        2.5448505987   -1.6347713562    4.5305507006
H        1.0080163920   -0.7491548536    4.5448348904
17   
torsion grid (30,)
C        0.7643164257   -0.4341037600    0.6109083037
C        2.8642522116   -1.6372452691    0.5793875129
C        0.7110904883   -0.6336610511    1.9735034566
C        2.7506023460   -1.8047283202    1.9405331377
C        1.8734427132   -0.9155761457   -0.1199793026
C        1.5765369507   -1.5458952064    4.0900431326
N        1.0138167552    0.8992701965   -2.7818850347
N        2.0044196947   -0.8561463458   -1.4980271921
N        1.4402269762    0.1031882100   -2.0961634939
N        1.6918561829   -1.3029266614    2.6317057818
H       -0.0501382858    0.0961865048    0.1280503400
H        3.7170429143   -2.0475460209    0.0500339083
H       -0.1203298471   -0.2797838505    2.5727227472
H        3.4961640098   -2.3388125069    2.5184989420
H        1.0514706076   -2.4878333389    4.2618755761
H        2.5745241796   -1.5915406827    4.5243922004
H        1.0273026769   -0.7241326783    4.5478144832
17   
torsion grid (45,)
C        0.7054545929   -0.4800165349    0.6193043852
C        2.8304860359   -1.6352909178    0.5650861812
C        0.6801386085   -0.6622725233    1.9857813943
C        2.7447478474   -1.7889357561    1.9315606654
C        1.8156215125   -0.9390379016   -0.1221617655
C        1.6032362933   -1.5277634484    4.0969212219
N        1.2431024024    0.9981922668   -2.7817566465
N        1.8907692863   -0.9179778686   -1.5112911037
N        1.5181350490    0.1319694587   -2.1024072551
N        1.6881318687   -1.3008793788    2.6334224447
H       -0.1298122456    0.0196515664    0.1392922704
H        3.6805828271   -2.0370919977    0.0249274369
H       -0.1502285531   -0.3241058851    2.5954194146
H        3.5111292312   -2.3001847637    2.5030092769
H        1.1002573869   -2.4778594184    4.2885030281
H        2.6094129877   -1.5482215365    4.5138256440
H        1.0454318691   -0.7114622878    4.5539779063
17   
torsion grid (60,)
C        0.6390973177   -0.5189695183    0.6363322802
C        2.7902339769   -1.6198266565    0.5473144786
C        0.6448103883   -0.6905254453    2.0056152463
C        2.7359890047   -1.7656327304    1.9180705131
C        1.7453861172   -0.9542214556   -0.1215565804
C        1.6318118328   -1.5166189858    4.1028882904
N        1.5107981608    1.0479232649   -2.7961210553
N        1.7644420498   -0.9528856813   -1.5198907142
N        1.6123511212    0.1450665467   -2.1148648213
N        1.6818740706   -1.2987711568    2.6357468083
H       -0.2171381389   -0.0478116620    0.1647362132
H        3.6373456737   -2.0077609353   -0.0075604788
H       -0.1812663494   -0.3694736906    2.6301501255
H        3.5253654482   -2.2539596146    2.4782441170
H        1.1552441356   -2.4769347842    4.3100417790
H        2.6463942291   -1.5105556738    4.4992178270
H        1.0638579617   -0.7103287479    4.5650504704
17   
torsion grid (75,)
C        0.5684330065   -0.5514597407    0.6587416520
C        2.7443885878   -1.5936490201    0.5256131456
C        0.6073333235   -0.7178945057    2.0293896453
C        2.7250905162   -1.7358959096    1.8993743141
C        1.6648714582   -0.9657386525   -0.1207642249
C        1.6614695207   -1.5108072405    4.1058382128
N        1.8032259097    1.0459684662   -2.8054486413
N        1.6279670370   -0.9577486585   -1.5249261940
N        1.7186169629    0.1404444604   -2.1239247718
N        1.6740436069   -1.2963737711    2.6367051366
H       -0.3073211364   -0.1045547786    0.2000323946
H        3.5893270423   -1.9622707594   -0.0456450788
H       -0.2107392121   -0.4127382148    2.6721730844
H        3.5393175543   -2.2004100012    2.4441138395
H        1.2148549997   -2.4828152496    4.3245280288
H        2.6838148727   -1.4768299901    4.4800151467
H        1.0819029501   -0.7185133610    4.5775988094
17   
torsion grid (90,)
C        0.4944862266   -0.5761825124    0.6844657204
C        2.6943922889   -1.5592009517    0.4992852292
C        0.5691909828   -0.7439576951    2.0542995063
C        2.7116217060   -1.7021357668    1.8738328902
C        1.5770643489   -0.9728292462   -0.1198768848
C        1.6925625541   -1.5099140156    4.1037415505
N        2.1080957071    0.9885218694   -2.7973755355
N        1.4875434619   -0.9275345885   -1.5238864742
N        1.8311650024    0.1175876229   -2.1208318712
N        1.6647967013   -1.2947537321    2.6345400437
H       -0.3980640827   -0.1462177950    0.2427490862
H        3.5376242246   -1.9031319088   -0.0898864212
H       -0.2368780329   -0.4522901706    2.7181591741
H        3.5509652618   -2.1432286157    2.3996425854
H        1.2769709135   -2.4935150536    4.3313253535
H        2.7221021349   -1.4489462336    4.4538721886
H        1.1029576009   -0.7335581334    4.5893583579
17   
torsion grid (105,)
C        0.4224502285   -0.5945921694    0.7101890314
C        2.6486752308   -1.5087568537    0.4725470003
C        0.5316243838   -0.7712444117    2.0762986680
C        2.6990255494   -1.6588633296    1.8452802589
C        1.4935912732   -0.9676267845   -0.1197329278
C        1.7198772998   -1.5165954536    4.0972176799
N        2.3980450096    0.8723344533   -2.7756260368
N        1.3595893531   -0.8635202835   -1.5155496253
N        1.9416571319    0.0739795923   -2.1069971019
N        1.6550326364   -1.2926289869    2.6306187326
H       -0.4858949189   -0.1788774879    0.2878167797
H        3.4937224974   -1.8194498125   -0.1326687390
H       -0.2639989942   -0.4975706987    2.7600798648
H        3.5632329469   -2.0755276576    2.3503339931
H        1.3380648146   -2.5134396781    4.3263675699
H        2.7541500654   -1.4276081917    4.4267822741
H        1.1177524922   -0.7612991730    4.6004570771
17   
torsion grid (120,)
C        0.3626824833   -0.5978056711    0.7379516885
C        2.6112183098   -1.4439699670    0.4511703370
C        0.4980742860   -0.7915565501    2.0979203428
C        2.6873418504   -1.6112178172    1.8195144048
C        1.4259364506   -0.9389064356   -0.1175105715
C        1.7403888326   -1.5318557636    4.0885990397
N        2.6468765628    0.6870301980   -2.7735573564
N        1.2555304539   -0.7697445423   -1.4971035976
N        2.0375181225    0.0060086879   -2.0983344072
N        1.6451607029   -1.2894163275    2.6272802766
H       -0.5587765052   -0.1920704832    0.3351405627
H        3.4601333024   -1.7174653814   -0.1668171465
H       -0.2907392415   -0.5417048491    2.7984727705
H        3.5722835507   -2.0077480658    2.3044879408
H        1.3926470982   -2.5428040306    4.3102844048
H        2.7765163717   -1.4156502082    4.4036998536
H        1.1238043688   -0.8024097200    4.6122159564
17   
torsion grid (135,)
C        0.3210310941   -0.5827175117    0.7664822377
C        2.5897601060   -1.3646659998    0.4394433148
C        0.4728829238   -0.8049317478    2.1181645619
C        2.6797539385   -1.5616225238    1.8017101834
C        1.3845255268   -0.8790804296   -0.1090266982
C        1.7516819518   -1.5601707177    4.0805667657
N        2.8214078876    0.4538333901   -2.8099938879
N        1.1848582794   -0.6509906315   -1.4687082895
N        2.1052684021   -0.0752333451   -2.1058004472
N        1.6376275831   -1.2866856980    2.6269677662
H       -0.6115972430   -0.1857125663    0.3812050170
H        3.4442489454   -1.6004635476   -0.1866446299
H       -0.3150094261   -0.5888379881    2.8308120899
H        3.5793522642   -1.9462846490    2.2689265281
H        1.4224326770   -2.5811150710    4.2842564412
H        2.7889564428   -1.4343197829    4.3882699378
H        1.1294156465   -0.8522881068    4.6267836082
17   
torsion grid (150,)
C        0.2982999141   -0.5562618265    0.7909332088
C        2.5839575699   -1.2729758735    0.4413741491
C        0.4573469899   -0.8145895270    2.1334337024
C        2.6801979823   -1.5092037660    1.7960614395
C        1.3683831026   -0.7966276230   -0.0967151531
C        1.7538769764   -1.5973076250    4.0749853926
N        2.9139764621    0.1888515751   -2.8813144907
N        1.1477415012   -0.5197975824   -1.4374001374
N        2.1410270221   -0.1638766152   -2.1299156719
N        1.6336615323   -1.2836000456    2.6306321079
H       -0.6441422817   -0.1703085018    0.4186633482
H        3.4466274499   -1.4704124588   -0.1866873857
H       -0.3363650366   -0.6409781673    2.8511238392
H        3.5898470017   -1.8863421996    2.2497907722
H        1.4425511721   -2.6291527949    4.2502831605
H        2.7890825507   -1.4625571222    4.3860002783
H        1.1205270909   -0.9161467730    4.6421659391
17   
torsion grid (165,)
C        0.2899283744   -0.5219476100    0.8104903451
C        2.5954050882   -1.1790381248    0.4507824632
C        0.4467409144   -0.8198063155    2.1436315034
C        2.6856135618   -1.4571658497    1.7972846797
C        1.3732898202   -0.7046975518   -0.0770889234
C        1.7492393662   -1.6383689282    4.0665556449
N        2.9331903783   -0.0914626008   -2.9571880858
N        1.1426059870   -0.3821163938   -1.4010039287
N        2.1500591378   -0.2557016227   -2.1542680808
N        1.6307666135   -1.2797338349    2.6329903034
H       -0.6594280565   -0.1474663142    0.4440395517
H        3.4682346361   -1.3372340520   -0.1742641117
H       -0.3568929349   -0.6932313672    2.8600652524
H        3.6004069420   -1.8298225957    2.2443002274
H        1.4530155740   -2.6799201571    4.2075596403
H        2.7809083940   -1.4982049344    4.3868777167
H        1.1035132033   -0.9853686740    4.6526503012
17   
torsion grid (180,)
C        0.2957692950   -0.4848876201    0.8225373963
C        2.6157209843   -1.0841999840    0.4698099561
C        0.4437549562   -0.8240694827    2.1463846336
C        2.6972446709   -1.4068915020    1.8067814283
C        1.3937823855   -0.6081459347   -0.0579562610
C        1.7390228327   -1.6812831055    4.0582552501
N        2.8845417978   -0.3727038584   -3.0290185292
N        1.1676708739   -0.2446535378   -1.3706044580
N        2.1353013950   -0.3458988416   -2.1791397359
N        1.6305383124   -1.2772127379    2.6360606091
H       -0.6583898778   -0.1218424651    0.4571150581
H        3.5001699359   -1.2023790135   -0.1475461225
H       -0.3730686821   -0.7455537012    2.8547074592
H        3.6146265586   -1.7763365560    2.2511626867
H        1.4544549905   -2.7304134394    4.1624070023
H        2.7656460748   -1.5393527635    4.3936438597
H        1.0798104966   -1.0554623834    4.6588142659
