8    
torsion grid (-165,)
C       -1.8100485332   -3.5326665822    1.2190438286
C       -2.4196189810   -2.0838140452    1.1651929511
F       -1.3701695427   -3.7936749652    2.4640659137
F       -2.7816833463   -4.4098431786    0.9159485533
F       -3.1556917758   -1.9859307236    0.0392707118
Cl      -1.1694449959   -0.8219469741    1.1622689084
Br      -0.2927793307   -3.7862009562    0.0024527840
Br      -3.5800007058   -1.8226408711    2.7372107273
8    
torsion grid (-150,)
C       -1.8283593718   -3.5236568639    1.2221983863
C       -2.4270845813   -2.0501262694    1.1915358637
F       -1.5415622148   -3.8722079854    2.4919394502
F       -2.7707754853   -4.3603903088    0.7602044451
F       -3.2805661250   -1.9790633898    0.1505420687
Cl      -1.1883180111   -0.7882876257    0.9993220316
Br      -0.1681951823   -3.7656779399    0.2045323473
Br      -3.4008991336   -1.6967622706    2.8698417085
8    
torsion grid (-135,)
C       -1.8243846000   -3.5394638423    1.1952950222
C       -2.4403899697   -2.0512288577    1.1938018375
F       -1.7191541450   -3.9954527969    2.4573474428
F       -2.6866354197   -4.3362253309    0.5426113269
F       -3.4179450323   -2.0249210984    0.2632099771
Cl      -1.2670835413   -0.7784001559    0.7917067032
Br      -0.0448513829   -3.7272581980    0.3945551846
Br      -3.2303096255   -1.6350273194    2.9506014164
8    
torsion grid (-120,)
C       -8.6056692650   -1.3189962649   -1.0448105756
C       -7.0108166138   -1.1355634089   -1.2473443423
F       -9.1868562136   -1.6895794043   -2.1982124372
F       -8.7836860240   -2.3189610192   -0.1630858864
F       -6.4129557358   -2.1010310374   -0.5124324300
Cl      -6.3727186300    0.4260683543   -0.7004482251
Br      -9.5693691876    0.2512977589   -0.3771026715
Br      -6.5075565976   -1.4413184982   -3.1271067818
8    
torsion grid (-105,)
C       -6.4911443516    7.6259896512   -2.2122483018
C       -6.2282025351    6.0439457820   -2.1210189550
F       -5.6790149695    8.1881448102   -3.1192381072
F       -7.7580840890    7.7888167646   -2.6465912890
F       -7.1418687100    5.4653575169   -2.9420371225
Cl      -6.4475347942    5.3588528190   -0.5060793718
Br      -6.3364371397    8.5995131402   -0.5205145429
Br      -4.4634709708    5.5893544532   -2.8630381458
8    
torsion grid (-90,)
C        0.2077744150   -0.8864379172    1.3021607512
C        0.0280925629   -0.5590450363   -0.2398511690
F        0.9774303620   -1.9738786967    1.4574023051
F        0.8619602750    0.1592710055    1.8519057891
F        1.1697788802    0.0788703072   -0.6112362977
Cl      -1.3341110318    0.5134054651   -0.5802064943
Br      -1.4683638406   -1.1042131782    2.2862181105
Br      -0.0408474376   -2.2179239179   -1.2911633269
8    
torsion grid (-75,)
C        0.2171010310   -0.8617159962    1.3055354201
C        0.0420926022   -0.5636955885   -0.2281798692
F        1.1108435993   -1.8510357106    1.4681157729
F        0.7260035685    0.2503773821    1.8770103529
F        1.2304374161   -0.0480271764   -0.6391005947
Cl      -1.2246223248    0.6309158266   -0.5403585190
Br      -1.4519439692   -1.3114579926    2.2170790706
Br      -0.2372855220   -2.2326013516   -1.2198240316
8    
torsion grid (-60,)
C        0.2070021285   -0.8357363903    1.3160956435
C        0.0620587441   -0.5720811688   -0.2237095019
F        1.1998527831   -1.7274138339    1.4987417770
F        0.5750789788    0.3165102034    1.9096578192
F        1.2821093641   -0.1679238520   -0.6549553577
Cl      -1.1112794614    0.7236121638   -0.5325889857
Br      -1.4208593325   -1.5074847793    2.1604673327
Br      -0.4150249075   -2.2147324924   -1.1788265723
8    
torsion grid (-45,)
C        0.4292658018    0.0932908360    0.7034484006
C       -0.3501859404   -0.0828362946   -0.6554670615
F        0.7690792338   -1.1429319264    1.1299262428
F        1.5664555839    0.7722151909    0.4738032662
F        0.3470191376   -0.9771824954   -1.3903830644
Cl      -0.3924267333    1.4717258304   -1.5271157140
Br      -0.5871191256    0.9588779434    2.1274811348
Br      -2.1731221030   -0.7491445409   -0.3958872930
8    
torsion grid (-30,)
C        0.4198201579    0.1286048369    0.7011764629
C       -0.3590162305   -0.0658826316   -0.6752035194
F        0.8912906310   -1.0887104714    1.0530392601
F        1.4784087988    0.9332035246    0.5147817281
F        0.2584037145   -1.0629306670   -1.3422670920
Cl      -0.2356829512    1.4308386304   -1.6429410376
Br      -0.6476781022    0.7833962449    2.1996265945
Br      -2.2525834958   -0.5199446138   -0.4578794084
8    
torsion grid (-15,)
C        0.4237621683    0.1446508764    0.7126071617
C       -0.3777249786   -0.0856090932   -0.6681120156
F        1.0785837236   -1.0044865842    0.9778956728
F        1.3468082421    1.1072080672    0.5556888040
F        0.1389426735   -1.1896190886   -1.2473863007
Cl      -0.1135586089    1.2987797322   -1.7643184409
Br      -0.6547799884    0.5684287771    2.2874204011
Br      -2.3082016082   -0.3576845455   -0.4580066226
8    
torsion grid (0,)
C       -5.5221797879    2.3605249681   -1.2406001904
C       -6.8515624255    2.1346300067   -2.1391914613
F       -5.8165160585    1.9743931998    0.0134106470
F       -4.5304019447    1.5685978838   -1.6868449446
F       -7.8204337112    1.7095122504   -1.2958956529
Cl      -6.5770340570    0.8611020871   -3.3527875534
Br      -4.8117697329    4.1825786430   -1.1666556922
Br      -7.5443501226    3.7453877405   -3.0202144087
8    
torsion grid (15,)
C       -5.5319677036    2.3849273507   -1.2397921950
C       -6.8531466657    2.1643066351   -2.1291572401
F       -5.7357639230    1.7952897332   -0.0518985099
F       -4.4898466553    1.7670554513   -1.8339001164
F       -7.8568022353    1.9106888734   -1.2502648290
Cl      -6.6659610913    0.7447914180   -3.1796613868
Br      -4.9765193842    4.2406492960   -0.9555758194
Br      -7.4329243571    3.7283318298   -3.1606610356
8    
torsion grid (30,)
C        0.4869016351    0.0449026496    0.8106807066
C       -0.2226695575    0.1801527880   -0.6043181470
F        0.2693674990   -1.2012307712    1.2616701642
F        1.8170521142    0.2080539581    0.6522444623
F       -1.3685758038   -0.5440340622   -0.5186355087
Cl       0.8012310886   -0.5374610621   -1.8656542046
Br      -0.0771473591    1.3432050427    2.1609024487
Br      -0.7636683492    2.0054291892   -1.0671310534
8    
torsion grid (45,)
C        0.4753419812    0.0594664690    0.7783458306
C       -0.2496971830    0.1546720851   -0.6137156569
F        0.4152360174   -1.2185457247    1.1915541573
F        1.7714625503    0.3972056745    0.6261921474
F       -1.4459782052   -0.4685732279   -0.4718997258
Cl       0.7046852307   -0.7145872105   -1.8361012714
Br      -0.2845760097    1.2231854499    2.1559580761
Br      -0.6134422522    1.9985814933   -1.1637935843
8    
torsion grid (60,)
C        0.4049501354    0.0895861881    0.6686007372
C       -0.3408992719    0.0015732015   -0.7055310569
F        0.5285580630   -1.1554494017    1.1675965587
F        1.6359193746    0.5973258216    0.4854192192
F       -1.5615465921   -0.5346867024   -0.4804866897
Cl       0.5661042603   -1.0757164933   -1.7961975684
Br      -0.5602273188    1.1881458433    1.9708257464
Br      -0.5680781389    1.7745848863   -1.5082486096
8    
torsion grid (75,)
C       29.7682882281   -5.0536481586   14.6515269907
C       29.2260436104   -3.7774996212   13.9161996531
F       28.7987314727   -5.9924840655   14.6714408288
F       30.8221991172   -5.5590801615   13.9946403796
F       28.3367170736   -3.1526765823   14.7134396713
Cl      28.3964301709   -4.2705237520   12.4145970066
Br      30.2411256824   -4.6604852181   16.5113960343
Br      30.7033243516   -2.5608502825   13.4892888434
8    
torsion grid (90,)
C       24.2282524560   -5.5502924648   11.2105469750
C       25.7749098959   -5.2527367276   11.0362773040
F       23.6576796010   -4.5551865891   11.9226114655
F       23.6143640280   -5.5994391897   10.0215261689
F       26.4589723762   -5.7298987821   12.0925251984
Cl      26.0419579953   -3.4880199062   10.9490586336
Br      23.9262569855   -7.2055723909   12.2155746747
Br      26.4408701605   -6.0840516095    9.3859796184
8    
torsion grid (105,)
C        3.7664362191   -0.4619959467    2.1959771133
C        2.7946888923   -1.1774955487    3.2510432755
F        3.2489769761    0.7258176209    1.8253207992
F        4.9680860828   -0.2181954277    2.7376140238
F        2.1070822582   -2.1694543969    2.6520614732
Cl       1.6144396536   -0.0095384933    3.9024774722
Br       3.9816176757   -1.5305505027    0.5668509876
Br       3.8322882007   -1.9472899020    4.7329432733
8    
torsion grid (120,)
C        3.7723913307   -0.4828024062    2.1941466840
C        2.7944918532   -1.1934721866    3.2582532303
F        3.3947478295    0.7913654632    1.9907812995
F        5.0345144548   -0.4514349984    2.6532253032
F        2.2475288533   -2.2989236659    2.7078967546
Cl       1.4673810103   -0.1063848128    3.7262625299
Br       3.7794123164   -1.4113908864    0.4674399472
Br       3.7907981673   -1.7860284493    4.8488385489
8    
torsion grid (135,)
C        3.7919822172   -0.5085011725    2.2016713458
C        2.8204933776   -1.2095036631    3.2609592785
F        3.5609689004    0.8124834017    2.1575903020
F        5.0783695081   -0.6790488650    2.5620511443
F        2.4207878911   -2.4084181145    2.7752970453
Cl       1.3778801944   -0.2206021892    3.5472756463
Br       3.5994244888   -1.2806617734    0.4091513262
Br       3.7771678695   -1.6056174969    4.9362146337
8    
torsion grid (150,)
C        3.7963674135   -0.5077313202    2.1956935589
C        2.8323081108   -1.1964368331    3.2419899583
F        3.7000856997    0.8270397174    2.2809903953
F        5.0741242369   -0.8465261390    2.4581499612
F        2.5700942146   -2.4577504324    2.8235274681
Cl       1.3068969031   -0.3078387669    3.3704085566
Br       3.4150176557   -1.1124293423    0.3692336529
Br       3.7342269010   -1.3834643528    4.9820331038
8    
torsion grid (165,)
C      -19.3820883422    1.9935774613    4.6288674565
C      -18.9138633606    2.4007541256    6.0677314668
F      -18.7643965959    2.7530342637    3.7108536621
F      -19.0595028722    0.7062710848    4.4000683071
F      -19.6961968589    1.7611689528    6.9669577504
Cl     -19.0524806219    4.1503823373    6.3055668886
Br     -21.3285010959    2.1556256946    4.4438190490
Br     -17.0684107870    1.7757050169    6.3569449528
8    
torsion grid (180,)
C        1.3134511386   -1.1265605435    4.2859400124
C        0.9756669689   -1.1537988556    2.7591886687
F        1.7181271020   -2.3449517590    4.6848402076
F        2.3136727185   -0.2527723165    4.4943954996
F        0.6432272350    0.0985988433    2.3794192139
Cl      -0.3659707674   -2.2594193012    2.4090323622
Br      -0.2288605763   -0.5857567642    5.3704873409
Br       2.5848985450   -1.7066323040    1.7660735789
