30   
torsion grid (-165,)
C       -1.4480110871   -0.5675011453    0.5152583474
C       -1.0580286286   -1.1470709971   -0.6945248324
C       -0.5708950339    0.2887311145    1.1935871768
C        0.2085442831   -0.8736271296   -1.2245468165
C        0.6901039802    0.5620980290    0.6610548871
C        1.0889423728   -0.0167720018   -0.5536798303
C        4.8100557385    0.5775530781   -0.5260683636
C        3.6558665248   -1.4370617967    0.1005612705
C        5.7908555835    0.4415545772    0.6320155892
C        4.5763284570   -1.6688542371    1.2885414126
C        2.4531408756    0.2919127237   -1.1290441044
N        3.5314898403   -0.0126588661   -0.1670809467
N        5.9248654893   -1.0266052444    1.0003642091
H       -2.4312077555   -0.7766975123    0.9273251490
H       -1.7357256204   -1.8093325935   -1.2259629582
H       -0.8754116263    0.7470295201    2.1306718246
H        0.5065699667   -1.3255543051   -2.1684005669
H        1.3702243972    1.2290510354    1.1854806000
H        5.2519307590    0.1336690734   -1.4410676788
H        4.6791608661    1.6453018718   -0.7218130565
H        4.0242404605   -2.0042739742   -0.7781297410
H        2.6728389179   -1.8416397195    0.3546148943
H        6.7877468819    0.8091911521    0.3806108148
H        5.4190237604    0.9491882748    1.5234559191
H        4.7535440787   -2.7287976775    1.4812206137
H        4.1888639189   -1.1846881253    2.1863012879
H        2.5271391541    1.3607792137   -1.3567925037
H        2.5985785644   -0.2503368577   -2.0776447914
H        6.3688086931   -1.5257453196    0.2196996986
H        6.5488996838   -1.1330154789    1.8078866326
30   
torsion grid (-150,)
C       -1.4467019238   -0.4215418836    0.5756882047
C       -1.1139059796   -1.0933046504   -0.6027914761
C       -0.5145821859    0.4358667265    1.1749630971
C        0.1483166086   -0.9096680453   -1.1804439124
C        0.7424900051    0.6169950845    0.5963949724
C        1.0830720724   -0.0520821344   -0.5889404954
C        4.7486752356    0.6475534121   -0.4652486244
C        3.7792433924   -1.5314371127   -0.0702735377
C        5.6451133109    0.5234536672    0.7615692408
C        4.6319756212   -1.7516515578    1.1705436842
C        2.4431021034    0.1589782435   -1.2192670144
N        3.5320294052   -0.1152819222   -0.2630116256
N        5.9156101799   -0.9475734693    1.0319878974
H       -2.4261883298   -0.5604179072    1.0247095782
H       -1.8328124244   -1.7583616942   -1.0730768832
H       -0.7733633255    0.9653004138    2.0880188238
H        0.4000222096   -1.4319765942   -2.1013282392
H        1.4652213429    1.2821971282    1.0631507041
H        5.3166182597    0.3419100851   -1.3677130280
H        4.5033692656    1.7057018305   -0.5868169443
H        4.2634358413   -2.0046290998   -0.9484458233
H        2.8248848394   -2.0420054577    0.0860959098
H        6.6107678606    1.0145419937    0.6252860426
H        5.1486874385    0.9126469214    1.6519155815
H        4.9143760829   -2.7975559374    1.3065795502
H        4.1285578414   -1.3793086871    2.0640280352
H        2.5449160422    1.2052521581   -1.5264531365
H        2.5455339413   -0.4484403369   -2.1316893160
H        6.4649611236   -1.3325393279    0.2534616386
H        6.4914846761   -1.0514792562    1.8748185961
30   
torsion grid (-135,)
C       -1.4493606318   -0.2243707088    0.5939766273
C       -1.2252386522   -0.8719660741   -0.6236171764
C       -0.4035271620    0.4711852836    1.2131012426
C        0.0400713781   -0.8239543708   -1.2196244419
C        0.8577276563    0.5177462899    0.6155817475
C        1.0886266603   -0.1262158558   -0.6083660458
C        4.6684012223    0.6933275848   -0.4432553051
C        3.9584166682   -1.6062035871   -0.1597979231
C        5.5072788985    0.6385866630    0.8289406172
C        4.7704947413   -1.7585997551    1.1193187269
C        2.4437502344   -0.0409145585   -1.2837267996
N        3.5558157780   -0.2268364841   -0.3360998145
N        5.9473175100   -0.7964219261    1.0697488666
H       -2.4305972702   -0.2604790734    1.0588669776
H       -2.0310784140   -1.4162616504   -1.1080563594
H       -0.5749838698    0.9786100885    2.1587340233
H        0.2071566482   -1.3306467256   -2.1681179069
H        1.6691344893    1.0550605741    1.1004358689
H        5.3214238979    0.4998226027   -1.3191672314
H        4.2937817678    1.7147556769   -0.5450714982
H        4.5376308600   -1.9989531820   -1.0199255410
H        3.0657901399   -2.2300063671   -0.0598034332
H        6.4088814840    1.2509708466    0.7623870312
H        4.9193256255    0.9290962045    1.7010152678
H        5.1759162201   -2.7648966069    1.2430950916
H        4.1806201582   -1.4805621373    1.9940158422
H        2.5597446302    0.9510635677   -1.7344685546
H        2.5056702441   -0.7595529539   -2.1131241760
H        6.5778491486   -1.0822651830    0.3100705400
H        6.4904927493   -0.8576655574    1.9380426308
30   
torsion grid (-120,)
C       -1.5301687278    0.1194370587    0.5030044712
C       -1.3792101543   -0.4010546608   -0.7865968569
C       -0.4027922301    0.5400224491    1.2150191396
C       -0.1078658740   -0.4978285730   -1.3585606330
C        0.8684013829    0.4428882414    0.6398175822
C        1.0255990245   -0.0726771717   -0.6521420718
C        4.4752748876    0.8625096350   -0.4345283686
C        4.1171903953   -1.5241092148   -0.2597010189
C        5.3195342325    0.8788212262    0.8345846996
C        4.9476443005   -1.6107226546    1.0146742033
C        2.3870519866   -0.1346631857   -1.3236058641
N        3.5082072072   -0.2145696483   -0.3713309410
N        5.9687316924   -0.4839874668    1.0129468472
H       -2.5175527967    0.1926167582    0.9500807163
H       -2.2494175238   -0.7363754736   -1.3439843409
H       -0.5139660437    0.9429406816    2.2182823931
H       -0.0000370477   -0.9069575838   -2.3614388995
H        1.7436859220    0.7604395321    1.1998113486
H        5.1429184332    0.8020221450   -1.3182773988
H        3.9541813719    1.8212471983   -0.4925680224
H        4.7487756893   -1.7837953374   -1.1332769294
H        3.3338383419   -2.2833673747   -0.1905518928
H        6.1196386129    1.6208617694    0.7952608478
H        4.7003230597    1.0417276950    1.7180964203
H        5.4975990249   -2.5506584140    1.0944342373
H        4.3260049874   -1.4625918613    1.8990046194
H        2.5236303758    0.7609641637   -1.9420767021
H        2.4235421103   -0.9796704855   -2.0222753553
H        6.6329269393   -0.6386936786    0.2439864190
H        6.5170455758   -0.5029175962    1.8799974524
30   
torsion grid (-105,)
C       -1.5537491236    0.3524966138    0.4419768077
C       -1.2721682146    0.5322395171   -0.9155070661
C       -0.5658442967   -0.1551264737    1.2929188617
C       -0.0090712351    0.2042872536   -1.4180311925
C        0.6952797302   -0.4834541726    0.7881512356
C        0.9820211013   -0.3101526101   -0.5722072505
C        4.2606351974    0.6456333085   -0.5531687721
C        4.2794426846   -1.6864558565   -0.0029972809
C        5.1975259388    0.9928881522    0.5957868579
C        5.2157969727   -1.4605991175    1.1776344842
C        2.3240288435   -0.7193589919   -1.1492923349
N        3.4473879654   -0.5100403479   -0.2077658476
N        6.0551315193   -0.2211090880    0.9151883797
H       -2.5336263957    0.6088511690    0.8348546064
H       -2.0319357604    0.9316304607   -1.5815380446
H       -0.7795405328   -0.2947679258    2.3493049983
H        0.2021503566    0.3492748189   -2.4758438003
H        1.4635332623   -0.8669680959    1.4542255749
H        4.8452640839    0.4952992964   -1.4824128764
H        3.6102783843    1.5093846420   -0.7161709691
H        4.8714764272   -1.9636606234   -0.8982602335
H        3.6486725828   -2.5446186976    0.2422005782
H        5.8724969748    1.8160001734    0.3527719447
H        4.6361638630    1.2230816148    1.5025826404
H        5.9023859091   -2.2952845513    1.3326543922
H        4.6533882849   -1.2634498507    2.0916653839
H        2.5096318235   -0.1918319196   -2.0932287957
H        2.2910535149   -1.7845912252   -1.4074277353
H        6.6785459732   -0.4051923715    0.1194319839
H        6.6600609930   -0.0259107758    1.7206932992
30   
torsion grid (-90,)
C       -1.4660851612    0.5516950824    0.3674031178
C       -1.0646887418    0.7650456070   -0.9534082302
C       -0.6347870860   -0.1637313026    1.2388031681
C        0.1636846927    0.2649435193   -1.4013925963
C        0.5893261386   -0.6619983678    0.7897522083
C        0.9964326870   -0.4546648579   -0.5364789198
C        4.0683121537    0.5524852286   -0.4851243882
C        4.4269894198   -1.7656600904   -0.0298852195
C        5.0312514687    0.9915376073    0.6081211320
C        5.4090773667   -1.4545082931    1.0927413783
C        2.3079847938   -1.0253242704   -1.0331709736
N        3.4302969333   -0.7060160531   -0.1208346739
N        6.0597073305   -0.1071242057    0.8262418134
H       -2.4193424012    0.9378180716    0.7174524458
H       -1.7036308320    1.3201460188   -1.6345151553
H       -0.9454874634   -0.3344691867    2.2660537070
H        0.4686059310    0.4321296930   -2.4326200978
H        1.2347037963   -1.2126537651    1.4697406327
H        4.5988300192    0.4923517582   -1.4557661844
H        3.3018631106    1.3268646484   -0.5818848116
H        4.9819653903   -1.9256600745   -0.9758361362
H        3.9376334661   -2.7110063058    0.2181525167
H        5.5751372872    1.9020608347    0.3488677176
H        4.5110250363    1.1231021217    1.5580605791
H        6.2076874618   -2.1953332845    1.1672702363
H        4.8925513806   -1.3630121563    2.0495190491
H        2.5184346229   -0.6865239429   -2.0577431826
H        2.2285307935   -2.1169686379   -1.0795103076
H        6.6462202625   -0.1828851311   -0.0138670518
H        6.6874614926    0.1420976545    1.5987182908
30   
torsion grid (-75,)
C       -1.3823015811    0.7239901074    0.2897383027
C       -0.9398461327    0.8391520916   -1.0302523814
C       -0.6288931420   -0.0106274871    1.2145131562
C        0.2538405559    0.2228878431   -1.4241641394
C        0.5597244575   -0.6262340794    0.8187219089
C        1.0091187793   -0.5161181334   -0.5059689113
C        3.8911185193    0.5234619436   -0.3427553663
C        4.5281745003   -1.7727362586   -0.1329279289
C        4.8845705204    0.9695429333    0.7185272523
C        5.5594506226   -1.4500905736    0.9410854816
C        2.2895057245   -1.1986583402   -0.9342536080
N        3.4221065083   -0.8272115994   -0.0588547983
N        6.0390519617   -0.0197924236    0.7578227032
H       -2.3091527672    1.1998068029    0.5976957641
H       -1.5202623664    1.4061937205   -1.7526594869
H       -0.9738775773   -0.1072150442    2.2404412707
H        0.5917988514    0.3135230880   -2.4545369933
H        1.1435663623   -1.1964982283    1.5370770410
H        4.3476721801    0.6087791691   -1.3489476950
H        3.0407369751    1.2102869935   -0.3149630215
H        5.0179661997   -1.7902536066   -1.1270504452
H        4.1602875346   -2.7840898961    0.0597957654
H        5.3056347051    1.9554104438    0.5116420191
H        4.4310566176    0.9569192469    1.7107808575
H        6.4357813503   -2.0991950200    0.8878812957
H        5.1165376686   -1.5008713501    1.9370015699
H        2.5110937443   -0.9783684556   -1.9906027498
H        2.1705561544   -2.2846439247   -0.8542925395
H        6.5595056440    0.0447307517   -0.1256034654
H        6.6976810952    0.2312047361    1.5035578293
30   
torsion grid (-60,)
C       -1.3008035969    0.8718689330    0.2032401177
C       -0.8058194466    0.9012406760   -1.1029264732
C       -0.6381022384    0.1197051875    1.1817878373
C        0.3515325217    0.1844129186   -1.4293153250
C        0.5134660665   -0.5975960777    0.8530327750
C        1.0179981876   -0.5700515149   -0.4565402038
C        3.7471929809    0.5003948444   -0.1842856091
C        4.6010156587   -1.7399724262   -0.2179155141
C        4.7800626198    0.9449870945    0.8387579286
C        5.6839398948   -1.4074549774    0.8006375158
C        2.2682703140   -1.3452947053   -0.8016837997
N        3.4282387567   -0.9085752309    0.0071575822
N        6.0181205529    0.0714580532    0.7049161160
H       -2.2002177648    1.4253965720    0.4580368069
H       -1.3184992087    1.4781242073   -1.8675400335
H       -1.0261758065    0.0868074521    2.1962296366
H        0.7304829266    0.2087379144   -2.4489260797
H        1.0249014525   -1.1848725330    1.6121418656
H        4.1123398882    0.7180506965   -1.2083158137
H        2.8464922138    1.0993414987   -0.0321423825
H        5.0091759365   -1.6384811427   -1.2436004982
H        4.3356592594   -2.7924181082   -0.0839316597
H        5.0935146128    1.9807628900    0.6940526899
H        4.4110732880    0.8043238172    1.8559300760
H        6.6065936949   -1.9647873634    0.6266415459
H        5.3310803712   -1.5779729301    1.8189482249
H        2.4820710572   -1.2523898141   -1.8794191887
H        2.1232516859   -2.4102876235   -0.5911547369
H        6.4549139323    0.2549987767   -0.2066950893
H        6.7115314197    0.3248439083    1.4175664902
30   
torsion grid (-45,)
C       -1.2169174887    0.9625948789    0.0931124186
C       -0.6505886615    0.9287108365   -1.1841151428
C       -0.6622458481    0.1903239233    1.1215158654
C        0.4717280554    0.1299438298   -1.4312752757
C        0.4549462056   -0.6089769756    0.8710040934
C        1.0336766130   -0.6428109895   -0.4076117856
C        3.6672424907    0.4463013285   -0.0397729592
C        4.6542448694   -1.7270807804   -0.3248710498
C        4.7525598726    0.8697345761    0.9378159125
C        5.7959858877   -1.4037290036    0.6305548166
C        2.2551285260   -1.4916813729   -0.6620091153
N        3.4588499174   -0.9914495046    0.0480171432
N        6.0273339409    0.0974012782    0.6327593001
H       -2.0905928317    1.5789548872    0.2855439172
H       -1.0831287684    1.5177044031   -1.9880269427
H       -1.1080759919    0.2041945523    2.1123233669
H        0.9049374604    0.1034716817   -2.4289308542
H        0.8798910796   -1.2146768466    1.6684402935
H        3.9341230420    0.7825483443   -1.0623853869
H        2.7495602470    0.9685696494    0.2354566221
H        4.9719064882   -1.5262271196   -1.3680760859
H        4.4604360284   -2.8013270606   -0.2545375458
H        4.9896359145    1.9328979011    0.8629729191
H        4.4777102299    0.6181219939    1.9633920766
H        6.7337713673   -1.8805646086    0.3381438038
H        5.5410467070   -1.6778758407    1.6553916302
H        2.4421616444   -1.5388064504   -1.7474223576
H        2.0921945929   -2.5172855463   -0.3148543073
H        6.3717013980    0.3818267899   -0.2925372216
H        6.7619539168    0.3419397243    1.3060802451
30   
torsion grid (-30,)
C       -1.1679517054    1.0364766431   -0.0188216004
C       -0.5124435956    0.9534584491   -1.2513148541
C       -0.7361856260    0.2500587645    1.0557472133
C        0.5777402904    0.0913978898   -1.4074312755
C        0.3518774712   -0.6116328631    0.8958452487
C        1.0210012366   -0.6943185644   -0.3351925667
C        3.5972776062    0.4090073900    0.1063398327
C        4.6547109104   -1.6906541791   -0.4174413793
C        4.7440982602    0.8137476113    1.0207988104
C        5.8603986555   -1.3749127803    0.4590745763
C        2.2170755674   -1.5994291398   -0.4876747524
N        3.4668782077   -1.0384670003    0.0985207738
N        6.0206607464    0.1323493583    0.5512644750
H       -2.0187123522    1.7013285090    0.1010643646
H       -0.8544564839    1.5512692987   -2.0915428424
H       -1.2529585156    0.3007793207    2.0101666271
H        1.0776453442    0.0230153668   -2.3715094857
H        0.6805763773   -1.2298532786    1.7285543802
H        3.7594610391    0.8407767080   -0.9021689640
H        2.6863338522    0.8626285041    0.4984735289
H        4.8736435190   -1.4120923584   -1.4684028515
H        4.5136638949   -2.7752954418   -0.4015653010
H        4.9264387250    1.8902805086    1.0077365208
H        4.5716527106    0.4741106705    2.0433373173
H        6.7900793998   -1.7801687748    0.0541504235
H        5.7095363764   -1.7320470132    1.4789301548
H        2.3691660139   -1.8000789668   -1.5595941822
H        2.0416674616   -2.5623374503    0.0023786569
H        6.2661575165    0.4976178652   -0.3772778239
H        6.8009370842    0.3686085200    1.1742219103
30   
torsion grid (-15,)
C       -1.1328505978    1.0782994231   -0.1459812755
C       -0.3912435037    0.9416246443   -1.3245607590
C       -0.8126016305    0.3014468301    0.9726360693
C        0.6723608059    0.0365120581   -1.3800634896
C        0.2517536503   -0.6029271253    0.9129746091
C        1.0072474763   -0.7395517222   -0.2611883032
C        3.5422628670    0.3623106021    0.2759821824
C        4.6245461848   -1.6376093179   -0.5176818309
C        4.7552511567    0.7455112578    1.1119969358
C        5.8977065114   -1.3344594897    0.2632864115
C        2.1809991492   -1.6846589929   -0.3063219545
N        3.4691263853   -1.0839762457    0.1602066226
N        6.0055045078    0.1664851938    0.4670560715
H       -1.9642864178    1.7762594676   -0.1041377941
H       -0.6485552610    1.5299053087   -2.2009977508
H       -1.3962613289    0.3926862207    1.8844712012
H        1.2360201193   -0.0762986488   -2.3042116121
H        0.4920927207   -1.2133766053    1.7808945837
H        3.5925503127    0.8822707948   -0.7016198394
H        2.6565952572    0.7437944164    0.7852250655
H        4.7291272336   -1.2690896256   -1.5586191309
H        4.5317871931   -2.7257944063   -0.5753362489
H        4.8926965657    1.8271284103    1.1733514932
H        4.6975095514    0.3157869504    2.1133167542
H        6.7983949804   -1.6605233897   -0.2611719569
H        5.8625496127   -1.7789452324    1.2590914043
H        2.3053885075   -2.0304618537   -1.3416769800
H        1.9901132291   -2.5677849963    0.3112156848
H        6.1422537842    0.6166602635   -0.4465234136
H        6.8337293493    0.3895051671    1.0300691114
30   
torsion grid (0,)
C       -1.0809505057    1.1134334349   -0.2974677826
C       -0.2529943645    0.9142500850   -1.4085549357
C       -0.8764334516    0.3634405330    0.8647831020
C        0.7787961233   -0.0256308464   -1.3515249203
C        0.1591327368   -0.5753806151    0.9179950615
C        0.9998500076   -0.7751630413   -0.1860132616
C        3.5085065574    0.2849303362    0.4813261394
C        4.5553227517   -1.5821317603   -0.6086039797
C        4.7925350885    0.6466128737    1.2149930141
C        5.8984153549   -1.2963683139    0.0532319042
C        2.1433118573   -1.7569129340   -0.1105968623
N        3.4674117030   -1.1498522308    0.2490552752
N        5.9812174170    0.1826423393    0.3873905327
H       -1.8886433984    1.8384876701   -0.3432694831
H       -0.4210820074    1.4805997565   -2.3204421915
H       -1.5262854138    0.5024443001    1.7242787500
H        1.4062095853   -0.1896484127   -2.2259721476
H        0.3086232562   -1.1634568107    1.8210780521
H        3.4346679476    0.8845442671   -0.4465271390
H        2.6715819315    0.5887513198    1.1115926497
H        4.5283033126   -1.1105770316   -1.6120442430
H        4.4989378880   -2.6628759345   -0.7626896518
H        4.8989175200    1.7237199283    1.3606039926
H        4.8618547578    0.1284295946    2.1727653476
H        6.7440180108   -1.5343883816   -0.5955846434
H        5.9899555933   -1.8315669106    0.9996364316
H        2.2463197628   -2.2505149739   -1.0833822390
H        1.9239646595   -2.5356251033    0.6261388222
H        6.0018659753    0.7203673761   -0.4880152303
H        6.8591799315    0.3870970298    0.8773252263
30   
torsion grid (15,)
C       -0.9948172783    1.1213631766   -0.4719068485
C       -0.1152967285    0.8292219225   -1.5213399088
C       -0.8757613278    0.4431266780    0.7447032571
C        0.8824539431   -0.1326600383   -1.3475124870
C        0.1273483797   -0.5170841622    0.9148215011
C        1.0186297765   -0.8110630583   -0.1257649756
C        3.4875750111    0.1859647255    0.7394871361
C        4.4589887499   -1.4695657555   -0.6871451281
C        4.8378043151    0.5475606420    1.3425027029
C        5.8644477237   -1.1821556896   -0.1719747247
C        2.1304521738   -1.8141449363    0.0767577842
N        3.4801984924   -1.2214724081    0.3613489601
N        5.9267806187    0.2518683548    0.3235325913
H       -1.7766735329    1.8632278107   -0.6077876974
H       -0.2176882272    1.3398260134   -2.4750168234
H       -1.5662202853    0.6545696934    1.5564491286
H        1.5474794161   -0.3721610771   -2.1757036411
H        0.2095032369   -1.0492239665    1.8604080635
H        3.2614790311    0.8661112839   -0.1022940666
H        2.7270009833    0.3745366859    1.4995508783
H        4.2742899697   -0.8757576711   -1.6048573391
H        4.4353772596   -2.5231952916   -0.9759925875
H        4.9092154620    1.6072021710    1.5967905300
H        5.0590267264   -0.0648466878    2.2180868886
H        6.6255087850   -1.2955934239   -0.9468769875
H        6.1035939281   -1.8150616935    0.6840559556
H        2.2256100898   -2.4475350792   -0.8090173439
H        1.8794984542   -2.4720709891    0.9144811290
H        5.8083030377    0.8849846061   -0.4769937761
H        6.8517149185    0.4512526492    0.7203573853
30   
torsion grid (30,)
C       -0.8661131360    1.1303701484   -0.6511036779
C       -0.0121534119    0.6813319894   -1.6650377317
C       -0.7685385893    0.5832453262    0.6319668255
C        0.9400479503   -0.3036693850   -1.3899145150
C        0.1881635732   -0.3999245235    0.9040151415
C        1.0563679488   -0.8486030960   -0.1005955929
C        3.4981042987    0.0367680634    1.0159959134
C        4.3440142373   -1.3423392347   -0.7377413382
C        4.8974015173    0.3921509632    1.4988371665
C        5.7906126753   -1.0548295830   -0.3551228568
C        2.1285153852   -1.8693951859    0.2127778331
N        3.4963680048   -1.3087982315    0.4497869183
N        5.8608643897    0.2998346441    0.3271889201
H       -1.6133151097    1.8894468534   -0.8647052442
H       -0.1002367420    1.0863667085   -2.6694902633
H       -1.4424468893    0.9140218826    1.4173582114
H        1.5782744183   -0.6693024050   -2.1921919880
H        0.2486219108   -0.8310599190    1.9015465009
H        3.1363082210    0.8043500908    0.3090157576
H        2.8342397981    0.0760476654    1.8828113310
H        4.0233798490   -0.6297670041   -1.5225079246
H        4.3211364989   -2.3415370684   -1.1797574796
H        4.9557314671    1.4100300807    1.8899232029
H        5.2522867365   -0.3180096640    2.2474441585
H        6.4533548333   -1.0213180920   -1.2223307441
H        6.1570032813   -1.7847083797    0.3685561420
H        2.2146395107   -2.6057918054   -0.5894239623
H        1.8506437067   -2.4181039519    1.1182821375
H        5.6195849608    1.0283216360   -0.3559843097
H        6.8197042746    0.4937623542    0.6366476043
30   
torsion grid (45,)
C       -0.8014457441    1.1119133575   -0.8201256837
C       -0.0118701434    0.5011034073   -1.8004180477
C       -0.6667601424    0.7270911600    0.5177051146
C        0.9153304214   -0.4808890760   -1.4398688384
C        0.2633613535   -0.2541507702    0.8737197568
C        1.0710341216   -0.8631418430   -0.0975806481
C        3.5334866905   -0.0956639365    1.2376572084
C        4.2143042562   -1.1764522705   -0.7811981116
C        4.9695731713    0.2362213202    1.6194474110
C        5.6872564865   -0.9003044557   -0.5072945796
C        2.1186441664   -1.8820548246    0.3019817859
N        3.4959928711   -1.3413865147    0.4784759009
N        5.8015846197    0.3461026238    0.3528734938
H       -1.5293035389    1.8684494880   -1.0994618177
H       -0.1311086071    0.7772133331   -2.8445579230
H       -1.2932039401    1.1812497805    1.2804612364
H        1.4981274128   -0.9747967793   -2.2149210171
H        0.3473401259   -0.5606838347    1.9147340786
H        3.0808246307    0.7540133099    0.6964233456
H        2.9672693609   -0.2139273912    2.1652886134
H        3.8002656927   -0.3697567763   -1.4153181644
H        4.1584005363   -2.1026812448   -1.3591086171
H        5.0498469253    1.1888206448    2.1471552820
H        5.4175524943   -0.5607476323    2.2151508811
H        6.2555406871   -0.7214270376   -1.4223993916
H        6.1414263256   -1.7121268198    0.0631340904
H        2.1864257927   -2.6896419506   -0.4313707999
H        1.8404224584   -2.3414738688    1.2558036580
H        5.4723510752    1.1543753836   -0.1894501512
H        6.7838434697    0.5293726572    0.5859516655
30   
torsion grid (60,)
C       -0.7697877968    1.0703385394   -0.9937715077
C       -0.0663328185    0.2960141593   -1.9224315273
C       -0.5610757380    0.8720996014    0.3750476224
C        0.8495469577   -0.6636342821   -1.4814977067
C        0.3561927103   -0.0887488710    0.8106735310
C        1.0783608923   -0.8620698041   -0.1109077327
C        3.6045728327   -0.2234441036    1.4300257613
C        4.0964050870   -0.9787848969   -0.7921560910
C        5.0706848655    0.0712030216    1.7182553957
C        5.5868306854   -0.7202859516   -0.6135083359
C        2.1133696243   -1.8630599398    0.3637661781
N        3.4946276733   -1.3302959869    0.4880070387
N        5.7736619915    0.3871535777    0.4091987405
H       -1.4890599401    1.8099250656   -1.3340795828
H       -0.2426576391    0.4285480523   -2.9863652814
H       -1.1220123606    1.4540830304    1.1011359545
H        1.3687777696   -1.2818415634   -2.2114650719
H        0.4920964567   -0.2534152139    1.8780112598
H        3.0995736333    0.6955642370    1.0805481775
H        3.1341385256   -0.5032741611    2.3766322863
H        3.6210046900   -0.1017452410   -1.2692439866
H        3.9901087791   -1.8167727615   -1.4864940763
H        5.2004133678    0.9328153149    2.3763601728
H        5.5765050939   -0.7999956556    2.1376373049
H        6.0669681922   -0.3964896025   -1.5392002535
H        6.0970726074   -1.5983249534   -0.2141822059
H        2.1674474606   -2.7177683491   -0.3166985481
H        1.8413594725   -2.2558161389    1.3481776363
H        5.3863641124    1.2591955199    0.0276279241
H        6.7723569692    0.5562578917    0.5727912769
30   
torsion grid (75,)
C       -0.7532832940    1.0131395312   -1.1588991026
C       -0.1528540439    0.0780298733   -2.0081584578
C       -0.4534562278    1.0027330126    0.2075941243
C        0.7525083828   -0.8546332185   -1.4931829715
C        0.4516101825    0.0675538473    0.7177662108
C        1.0716986200   -0.8664617950   -0.1274040862
C        3.6950211933   -0.3660820375    1.5896965443
C        3.9806434975   -0.7697034830   -0.7650913332
C        5.1862780867   -0.1228068168    1.7851426808
C        5.4844924378   -0.5453988896   -0.6776641405
C        2.1009513433   -1.8377116000    0.4158078939
N        3.4829367358   -1.3013754205    0.4949634647
N        5.7734408959    0.3922092203    0.4823727831
H       -1.4635912866    1.7329628814   -1.5557218063
H       -0.3991616299    0.0665985924   -3.0663356475
H       -0.9362533104    1.7105821938    0.8758132242
H        1.1975495975   -1.5925812163   -2.1581727251
H        0.6521588732    0.0466407851    1.7872953842
H        3.1800943648    0.6023044796    1.4418545071
H        3.3084510441   -0.7965801871    2.5172906423
H        3.4788427827    0.1669263053   -1.0696368821
H        3.8023371198   -1.4959070487   -1.5627202913
H        5.3891741651    0.6244912025    2.5550221945
H        5.7127278653   -1.0505409986    2.0151250017
H        5.8894700269   -0.0839862496   -1.5806684054
H        6.0141320226   -1.4747294932   -0.4618737333
H        2.1468459250   -2.7298247152   -0.2167042487
H        1.8335259935   -2.1732601389    1.4215449874
H        5.3639292107    1.3116628583    0.2747043464
H        6.7845339031    0.5365133427    0.5802563852
30   
torsion grid (90,)
C       -0.7687068359    0.9254351026   -1.3116150895
C       -0.2581942820   -0.1432386664   -2.0546334251
C       -0.3786453607    1.0935981585    0.0220280756
C        0.6485787724   -1.0330837334   -1.4694997988
C        0.5252472869    0.2006273317    0.6034753635
C        1.0547123332   -0.8680505861   -0.1383317755
C        3.8004343626   -0.5011165045    1.7156447581
C        3.8776078208   -0.5430666363   -0.6938823954
C        5.3112832697   -0.3256421510    1.8150331920
C        5.3906133525   -0.3687305800   -0.7024494516
C        2.0876560834   -1.7946125504    0.4698617162
N        3.4660710273   -1.2419662561    0.5118695442
N        5.8070573545    0.3700420293    0.5589054976
H       -1.4782133631    1.6134407575   -1.7626111248
H       -0.5725539568   -0.2898514302   -3.0842684207
H       -0.7910582600    1.9087751781    0.6103795809
H        1.0296100290   -1.8712247843   -2.0501189244
H        0.7967985310    0.3210592065    1.6505215858
H        3.3157962936    0.4939525510    1.7683444212
H        3.4774707956   -1.0630173832    2.5955261485
H        3.3855038181    0.4394724025   -0.8151267371
H        3.6091815058   -1.1353093615   -1.5722628699
H        5.6050898921    0.2891958326    2.6683353340
H        5.8194993956   -1.2904244103    1.8543478996
H        5.7369982924    0.2196859135   -1.5546707175
H        5.9031021769   -1.3317664752   -0.6784269018
H        2.1327572273   -2.7222903007   -0.1100891062
H        1.8197380854   -2.0717119476    1.4924743608
H        5.4160192245    1.3200596941    0.5297351965
H        6.8273234687    0.4738247984    0.5895885787
30   
torsion grid (105,)
C       -0.8113403895    0.8410313798   -1.4677104179
C       -0.3512782468   -0.3192409218   -2.0966744008
C       -0.3639987991    1.1569229909   -0.1789968533
C        0.5611784354   -1.1554459938   -1.4438912097
C        0.5437922123    0.3172284926    0.4702870053
C        1.0206117039   -0.8451080023   -0.1575483326
C        3.8899192874   -0.6239137908    1.7962076757
C        3.7791515114   -0.3121922602   -0.5943559944
C        5.4102313752   -0.5085020033    1.7951122736
C        5.2932935729   -0.1877159422   -0.7013943887
C        2.0501233906   -1.7206498432    0.5239303448
N        3.4315612593   -1.1628674131    0.5299272667
N        5.8367482601    0.3464112082    0.6142838663
H       -1.5237531050    1.4885276884   -1.9710647493
H       -0.7068703621   -0.5775909672   -3.0902596116
H       -0.7342455777    2.0474634920    0.3216175519
H        0.9073266267   -2.0625366709   -1.9355959217
H        0.8664034744    0.5569231204    1.4820836805
H        3.4522778116    0.3659940353    2.0384714588
H        3.6174865399   -1.3019681413    2.6084344211
H        3.3247078284    0.6943645499   -0.5356157312
H        3.4182813085   -0.7584124341   -1.5236840950
H        5.7942150280   -0.0331986785    2.7002312682
H        5.8787665288   -1.4838764641    1.6547622427
H        5.5993031594    0.5072939975   -1.4862167398
H        5.7633533707   -1.1601732767   -0.8564189641
H        2.0885562403   -2.6927740659    0.0212061893
H        1.7694306315   -1.9108081287    1.5627689492
H        5.4847746956    1.3020970488    0.7525476531
H        6.8597913481    0.4137756259    0.5758767293
30   
torsion grid (120,)
C       -0.8206483521    0.7516413312   -1.6170121004
C       -0.3571368365   -0.4604417797   -2.1364641931
C       -0.3826749181    1.1819179885   -0.3584949486
C        0.5493260513   -1.2353575947   -1.4045030840
C        0.5195618017    0.4036845816    0.3699014904
C        0.9993176553   -0.8100511921   -0.1476279003
C        3.9957512264   -0.7539954343    1.8404812553
C        3.7060150086   -0.1099427781   -0.4595110681
C        5.5150233223   -0.6898381480    1.7285864906
C        5.2099632437   -0.0332917502   -0.6854513694
C        2.0121131049   -1.6256392342    0.6219392983
N        3.4139689111   -1.1047581990    0.5584783987
N        5.8893130782    0.2954360702    0.6349068124
H       -1.5284757206    1.3518275144   -2.1817321337
H       -0.7052060416   -0.8062091168   -3.1058121934
H       -0.7551925495    2.1141092500    0.0573479609
H        0.9000766661   -2.1821983970   -1.8099847091
H        0.8389102206    0.7335325325    1.3572523693
H        3.6172345246    0.2076492593    2.2434367313
H        3.7620728408   -1.5245315353    2.5791462035
H        3.3179068217    0.8965427889   -0.2130293934
H        3.2429353757   -0.3933439880   -1.4063298567
H        5.9889605655   -0.3506982897    2.6521946724
H        5.9265722181   -1.6545409037    1.4277173633
H        5.4849578544    0.7490318208   -1.3961380729
H        5.6132058724   -0.9942675267   -1.0088176351
H        2.0187418961   -2.6533268259    0.2450044607
H        1.7211799729   -1.6723861616    1.6752323888
H        5.6039712221    1.2388510639    0.9257756387
H        6.9079218252    0.3216151865    0.5149230607
30   
torsion grid (135,)
C       -1.2850260513   -1.1074713011    0.1227935027
C       -0.4797282147   -1.4521257151   -0.9687406742
C       -0.8953404877   -0.0681623323    0.9737795948
C        0.7142469284   -0.7644827794   -1.2008214367
C        0.3006930648    0.6170678041    0.7385436079
C        1.1196735614    0.2716035691   -0.3462497668
C        4.7663329213    0.2588892505   -0.8150349619
C        3.3928948203   -0.9528025922    0.7257085946
C        6.0348967511   -0.0418703689   -0.0260090758
C        4.5851005959   -1.2944526924    1.6081323110
C        2.4303806092    0.9833156486   -0.5714957770
N        3.6198416484    0.3311746723    0.0760156978
N        5.8408847537   -1.3316767796    0.7511440052
H       -2.2173603177   -1.6362017595    0.2999187780
H       -0.7888066903   -2.2452953022   -1.6439139828
H       -1.5255180856    0.2142998950    1.8125047568
H        1.3262968730   -1.0247285068   -2.0626007860
H        0.5952106209    1.4318079666    1.3967596974
H        4.6390115931   -0.4938971938   -1.6189466559
H        4.9164269356    1.2252535115   -1.3040076167
H        3.2117397071   -1.7813123585    0.0141653913
H        2.5130650088   -0.8996392640    1.3683493636
H        6.9069774450   -0.1737725408   -0.6699403810
H        6.2295160958    0.7371889248    0.7126870092
H        4.4849487709   -2.2738556842    2.0806731562
H        4.7501924660   -0.5264336334    2.3654665095
H        2.3755132194    2.0096172194   -0.1966451515
H        2.6133047883    1.0404800909   -1.6507744373
H        5.7615386580   -2.1110801761    0.0863988585
H        6.6647506514   -1.5244932123    1.3314872019
30   
torsion grid (150,)
C       -1.3363414926   -1.0107677854    0.2499702702
C       -0.6306838195   -1.4212911993   -0.8856505280
C       -0.8259830140    0.0153157961    1.0534627077
C        0.5858379665   -0.8133898823   -1.2110238411
C        0.3889176005    0.6221000677    0.7241872842
C        1.1090645796    0.2088418448   -0.4073540393
C        4.8232028765    0.3686011062   -0.7216834028
C        3.4143603435   -1.0666344735    0.5588417370
C        6.0301170162    0.1041332220    0.1689923719
C        4.5362801510   -1.3954637107    1.5323598654
C        2.4380265690    0.8405641639   -0.7353180664
N        3.5909436302    0.2903805969    0.0504468710
N        5.8732938045   -1.2582716188    0.8203016351
H       -2.2847070926   -1.4779219399    0.5001320391
H       -1.0316169706   -2.2052992260   -1.5220204201
H       -1.3790434741    0.3483959138    1.9273239664
H        1.1231422280   -1.1282896671   -2.1034191348
H        0.7780467925    1.4268338702    1.3443857218
H        4.8295168337   -0.3297475131   -1.5821412431
H        4.9375952464    1.3768099229   -1.1306245133
H        3.3789645953   -1.8325442374   -0.2404978394
H        2.4739755243   -1.1424290387    1.1060450204
H        6.9685405353    0.0960682385   -0.3893419107
H        6.0846274813    0.8309934861    0.9808361253
H        4.4722102054   -2.4181090161    1.9097207913
H        4.5551923519   -0.6890831021    2.3638421631
H        2.4144516237    1.9186362525   -0.5503235186
H        2.6317423807    0.6957745373   -1.8077438447
H        5.9346729528   -1.9822755219    0.0941111454
H        6.6457882792   -1.4319767689    1.4729025829
30   
torsion grid (165,)
C       -1.3804685007   -0.8817429882    0.3582841562
C       -0.7787059145   -1.3601127838   -0.8092706557
C       -0.7445140445    0.1121098911    1.1123490238
C        0.4592250002   -0.8520944803   -1.2180210137
C        0.4892278664    0.6204509081    0.6999758339
C        1.1038114851    0.1388000179   -0.4665853631
C        4.8494084305    0.4644385176   -0.6419258824
C        3.4703431913   -1.1816029799    0.3932296751
C        5.9877842257    0.2374777986    0.3435825443
C        4.5257118630   -1.4921294855    1.4428638491
C        2.4504316629    0.6725584271   -0.8868740069
N        3.5627923762    0.2222278480   -0.0010423521
N        5.9031027114   -1.1814167412    0.8775070993
H       -2.3438397884   -1.2722354360    0.6739856604
H       -1.2741276890   -2.1219540852   -1.4046321027
H       -1.2157187807    0.4965335970    2.0127659826
H        0.9186725830   -1.2231113122   -2.1318641032
H        0.9778961596    1.3986839022    1.2821579638
H        4.9985359873   -0.1646090065   -1.5418246814
H        4.9045248405    1.5065109081   -0.9707763078
H        3.5749194246   -1.8770817653   -0.4631410703
H        2.4947204140   -1.3768136801    0.8408171106
H        6.9700880717    0.3576060262   -0.1179199288
H        5.8978069387    0.8988466624    1.2066596954
H        4.5232599204   -2.5436655542    1.7367495942
H        4.4027556647   -0.8575999976    2.3220552454
H        2.4600979843    1.7669076468   -0.8668792523
H        2.6481086306    0.3602468427   -1.9247912555
H        6.1005651135   -1.8367937051    0.1115504978
H        6.6253081687   -1.3373685674    1.5895368968
30   
torsion grid (180,)
C       -1.4285950884   -0.7257027313    0.4408471837
C       -0.9395023686   -1.2534385905   -0.7569152965
C       -0.6619636696    0.2021567173    1.1574889406
C        0.3157772294   -0.8590633790   -1.2346543923
C        0.5876055983    0.5973445968    0.6764227595
C        1.0875364547    0.0677002706   -0.5236674548
C        4.8345226702    0.5406221657   -0.5887694389
C        3.5435923189   -1.2971271382    0.2347122179
C        5.8954785325    0.3641583355    0.4897840740
C        4.5297351814   -1.5665693835    1.3598744583
C        2.4460753703    0.4920231180   -1.0287878305
N        3.5318583699    0.1252756613   -0.0882841158
N        5.9101089647   -1.0872935306    0.9372254037
H       -2.4037973021   -1.0284689854    0.8117369179
H       -1.5329605027   -1.9677504383   -1.3206889228
H       -1.0443305695    0.6226878513    2.0836007656
H        0.6897843095   -1.2707135488   -2.1697515511
H        1.1798149589    1.3222320301    1.2302529767
H        5.1354270143   -0.0078744479   -1.5037585304
H        4.8052982449    1.6023299729   -0.8501870028
H        3.7882333354   -1.9308483608   -0.6414663766
H        2.5531692170   -1.6003183480    0.5802502520
H        6.8982891807    0.6082677775    0.1334328010
H        5.6588829887    0.9575090202    1.3743430469
H        4.6118159274   -2.6289491452    1.5978978333
H        4.2670653144   -1.0016443046    2.2556803097
H        2.4882446926    1.5801927068   -1.1448316303
H        2.6260420044    0.0495750462   -2.0226696981
H        6.2375849529   -1.6713383484    0.1580893845
H        6.5821229373   -1.2163461943    1.7018472826
