24
1 1 C10H10N3O
C                     0.296462462180     3.660952561750    -2.268695374554
C                    -1.081803062602     2.699237752647    -0.462025273524
C                    -1.430662112133     1.630934529866     0.362689799737
C                     0.593573563327     1.327572914510    -1.578509303446
C                    -0.068012088243     2.556010558847    -1.427937156421
C                     0.227551000225     0.269126929637    -0.754827559816
C                    -0.767738970455     0.415066490024     0.220619445529
C                     0.644922406259    -1.969972452542     0.007613219612
C                    -0.066019720170    -1.572909989420     1.292702729295
C                     0.926133351507    -0.996033295324     2.307622803777
N                     0.599781907405     4.550762469835    -2.955359173355
N                     0.807398500473    -1.025839572139    -0.904130734598
N                     1.101710508180    -3.207508600502    -0.143549811978
O                    -1.128748235665    -0.668294306242     0.983733767003
H                    -1.588028608787     3.653167465379    -0.357455099392
H                    -2.209691348257     1.725801250279     1.112391854926
H                     1.370191550573     1.214881695856    -2.330024621390
H                    -0.564907218892    -2.453658595039     1.702498746595
H                     1.438194605761    -0.114851806871     1.912926810558
H                     1.676021729992    -1.742471115597     2.585086385900
H                     0.373324684723    -0.708882314719     3.204892364248
H                     1.302307359170    -1.222453338015    -1.771835190768
H                     1.609592421369    -3.516390613688    -0.967973006965
H                     0.942175559735    -3.902192265143     0.578305340270
