
  -OEChem-12102412493D

 71 75  0     1  0  0  0  0  0999 V2000
   -2.9649   -7.4876    5.3554 C   0  0  0  0  0  0  0  0  0  0  0  0
   -2.1009   -6.2528    5.0356 C   0  0  2  0  0  0  0  0  0  0  0  0
   -1.1128   -6.5788    4.7054 H   0  0  0  0  0  0  0  0  0  0  0  0
   -1.8394   -5.4840    6.3286 C   0  0  0  0  0  0  0  0  0  0  0  0
   -0.9128   -5.8089    7.0612 O   0  0  0  0  0  0  0  0  0  0  0  0
   -2.7380   -4.4871    6.6278 N   0  0  0  0  0  0  0  0  0  0  0  0
   -3.7531   -4.1160    5.7212 C   0  0  0  0  0  0  0  0  0  0  0  0
   -4.8121   -3.2851    6.0803 C   0  0  0  0  0  0  0  0  0  0  0  0
   -5.7228   -2.8348    5.1218 C   0  0  0  0  0  0  0  0  0  0  0  0
   -5.5299   -3.2312    3.7971 C   0  0  0  0  0  0  0  0  0  0  0  0
   -4.5349   -4.0681    3.4351 N   0  0  0  0  0  0  0  0  0  0  0  0
   -3.6772   -4.5148    4.3616 C   0  0  0  0  0  0  0  0  0  0  0  0
   -2.6551   -5.3800    3.9874 N   0  0  2  0  0  0  0  0  0  0  0  0
   -2.4839   -5.8096    2.6027 C   0  0  0  0  0  0  0  0  0  0  0  0
   -3.6886   -6.6060    2.0423 C   0  0  0  0  0  0  0  0  0  0  0  0
   -3.5396   -6.9159    0.5588 C   0  0  0  0  0  0  0  0  0  0  0  0
   -3.2896   -5.6467   -0.2385 N   0  3  0  0  0  0  0  0  0  0  0  0
   -2.0043   -4.9874    0.2360 C   0  0  0  0  0  0  0  0  0  0  0  0
   -2.0925   -4.6134    1.7094 C   0  0  0  0  0  0  0  0  0  0  0  0
   -4.4710   -4.7139   -0.2255 C   0  0  0  0  0  0  0  0  0  0  0  0
   -6.3252   -2.7956    2.7304 N   0  0  0  0  0  0  0  0  0  0  0  0
   -7.5273   -2.0655    2.8134 C   0  0  0  0  0  0  0  0  0  0  0  0
   -8.5484   -2.4189    3.7129 C   0  0  0  0  0  0  0  0  0  0  0  0
   -9.7622   -1.7306    3.7018 C   0  0  0  0  0  0  0  0  0  0  0  0
   -9.9967   -0.6989    2.7874 C   0  0  0  0  0  0  0  0  0  0  0  0
   -8.9758   -0.3622    1.8967 C   0  0  0  0  0  0  0  0  0  0  0  0
   -7.7464   -1.0194    1.9066 C   0  0  0  0  0  0  0  0  0  0  0  0
   -9.2163    0.9861    0.7260 S   0  0  0  0  0  0  0  0  0  0  0  0
   -8.1987    0.8267   -0.3156 O   0  0  0  0  0  0  0  0  0  0  0  0
  -10.6443    1.0576    0.4275 O   0  0  0  0  0  0  0  0  0  0  0  0
   -8.8273    2.3940    1.5587 N   0  0  0  0  0  0  0  0  0  0  0  0
   -7.4106    2.5732    1.9206 C   0  0  0  0  0  0  0  0  0  0  0  0
   -7.2053    4.0323    2.3263 C   0  0  0  0  0  0  0  0  0  0  0  0
   -8.0771    4.4032    3.3885 O   0  0  0  0  0  0  0  0  0  0  0  0
   -9.4406    4.2517    3.0011 C   0  0  0  0  0  0  0  0  0  0  0  0
   -9.7544    2.8035    2.6300 C   0  0  0  0  0  0  0  0  0  0  0  0
   -2.6193   -3.7915    7.9115 C   0  0  0  0  0  0  0  0  0  0  0  0
   -3.9862   -7.1924    5.6147 H   0  0  0  0  0  0  0  0  0  0  0  0
   -3.0041   -8.1746    4.5055 H   0  0  0  0  0  0  0  0  0  0  0  0
   -2.5315   -8.0292    6.2001 H   0  0  0  0  0  0  0  0  0  0  0  0
   -4.9198   -2.9492    7.1053 H   0  0  0  0  0  0  0  0  0  0  0  0
   -6.5157   -2.1510    5.3959 H   0  0  0  0  0  0  0  0  0  0  0  0
   -1.6259   -6.4913    2.6106 H   0  0  0  0  0  0  0  0  0  0  0  0
   -3.7703   -7.5638    2.5608 H   0  0  0  0  0  0  0  0  0  0  0  0
   -4.6131   -6.0629    2.2339 H   0  0  0  0  0  0  0  0  0  0  0  0
   -2.6834   -7.5666    0.3592 H   0  0  0  0  0  0  0  0  0  0  0  0
   -4.4357   -7.3861    0.1473 H   0  0  0  0  0  0  0  0  0  0  0  0
   -3.1399   -5.9272   -1.2123 H   0  0  0  0  0  0  0  0  0  0  0  0
   -1.2101   -5.7147    0.0450 H   0  0  0  0  0  0  0  0  0  0  0  0
   -1.8339   -4.1147   -0.3984 H   0  0  0  0  0  0  0  0  0  0  0  0
   -2.7965   -3.7952    1.8551 H   0  0  0  0  0  0  0  0  0  0  0  0
   -1.1092   -4.2467    2.0173 H   0  0  0  0  0  0  0  0  0  0  0  0
   -4.2286   -3.8401   -0.8315 H   0  0  0  0  0  0  0  0  0  0  0  0
   -5.3294   -5.2367   -0.6488 H   0  0  0  0  0  0  0  0  0  0  0  0
   -4.6806   -4.4232    0.8024 H   0  0  0  0  0  0  0  0  0  0  0  0
   -5.8037   -2.6568    1.8747 H   0  0  0  0  0  0  0  0  0  0  0  0
   -8.4056   -3.2521    4.3934 H   0  0  0  0  0  0  0  0  0  0  0  0
  -10.5472   -2.0251    4.3925 H   0  0  0  0  0  0  0  0  0  0  0  0
  -10.9559   -0.1948    2.7389 H   0  0  0  0  0  0  0  0  0  0  0  0
   -6.9830   -0.7312    1.1889 H   0  0  0  0  0  0  0  0  0  0  0  0
   -7.1322    1.9135    2.7571 H   0  0  0  0  0  0  0  0  0  0  0  0
   -6.7951    2.3366    1.0511 H   0  0  0  0  0  0  0  0  0  0  0  0
   -6.1861    4.1798    2.6918 H   0  0  0  0  0  0  0  0  0  0  0  0
   -7.3709    4.6808    1.4540 H   0  0  0  0  0  0  0  0  0  0  0  0
  -10.0450    4.5580    3.8578 H   0  0  0  0  0  0  0  0  0  0  0  0
   -9.6675    4.9074    2.1485 H   0  0  0  0  0  0  0  0  0  0  0  0
  -10.7770    2.7242    2.2577 H   0  0  0  0  0  0  0  0  0  0  0  0
   -9.6367    2.1621    3.5165 H   0  0  0  0  0  0  0  0  0  0  0  0
   -2.5885   -2.7103    7.7503 H   0  0  0  0  0  0  0  0  0  0  0  0
   -3.4603   -4.0388    8.5672 H   0  0  0  0  0  0  0  0  0  0  0  0
   -1.6952   -4.1190    8.3834 H   0  0  0  0  0  0  0  0  0  0  0  0
  1  2  1  0  0  0  0
  1 38  1  0  0  0  0
  1 39  1  0  0  0  0
  1 40  1  0  0  0  0
  2  3  1  0  0  0  0
  2  4  1  0  0  0  0
  2 13  1  0  0  0  0
  4  5  2  0  0  0  0
  4  6  1  0  0  0  0
  6  7  1  0  0  0  0
  6 37  1  0  0  0  0
  7  8  1  0  0  0  0
  7 12  2  0  0  0  0
  8  9  2  0  0  0  0
  8 41  1  0  0  0  0
  9 10  1  0  0  0  0
  9 42  1  0  0  0  0
 10 11  2  0  0  0  0
 10 21  1  0  0  0  0
 11 12  1  0  0  0  0
 12 13  1  0  0  0  0
 13 14  1  0  0  0  0
 14 15  1  0  0  0  0
 14 19  1  0  0  0  0
 14 43  1  0  0  0  0
 15 16  1  0  0  0  0
 15 44  1  0  0  0  0
 15 45  1  0  0  0  0
 16 17  1  0  0  0  0
 16 46  1  0  0  0  0
 16 47  1  0  0  0  0
 17 18  1  0  0  0  0
 17 20  1  0  0  0  0
 17 48  1  0  0  0  0
 18 19  1  0  0  0  0
 18 49  1  0  0  0  0
 18 50  1  0  0  0  0
 19 51  1  0  0  0  0
 19 52  1  0  0  0  0
 20 53  1  0  0  0  0
 20 54  1  0  0  0  0
 20 55  1  0  0  0  0
 21 22  1  0  0  0  0
 21 56  1  0  0  0  0
 22 23  2  0  0  0  0
 22 27  1  0  0  0  0
 23 24  1  0  0  0  0
 23 57  1  0  0  0  0
 24 25  2  0  0  0  0
 24 58  1  0  0  0  0
 25 26  1  0  0  0  0
 25 59  1  0  0  0  0
 26 27  2  0  0  0  0
 26 28  1  0  0  0  0
 27 60  1  0  0  0  0
 28 29  2  0  0  0  0
 28 30  2  0  0  0  0
 28 31  1  0  0  0  0
 31 32  1  0  0  0  0
 31 36  1  0  0  0  0
 32 33  1  0  0  0  0
 32 61  1  0  0  0  0
 32 62  1  0  0  0  0
 33 34  1  0  0  0  0
 33 63  1  0  0  0  0
 33 64  1  0  0  0  0
 34 35  1  0  0  0  0
 35 36  1  0  0  0  0
 35 65  1  0  0  0  0
 35 66  1  0  0  0  0
 36 67  1  0  0  0  0
 36 68  1  0  0  0  0
 37 69  1  0  0  0  0
 37 70  1  0  0  0  0
 37 71  1  0  0  0  0
M  CHG  1  17   1
M  END
$$$$
