
  -OEChem-12122420523D

 46 50  0     0  0  0  0  0  0999 V2000
    5.1388   -0.0342    3.9425 C   0  0  0  0  0  0  0  0  0  0  0  0
    5.4642   -1.3124    3.4837 C   0  0  0  0  0  0  0  0  0  0  0  0
    4.6315   -1.9765    2.5690 C   0  0  0  0  0  0  0  0  0  0  0  0
    3.4704   -1.3333    2.1170 C   0  0  0  0  0  0  0  0  0  0  0  0
    3.1667   -0.0504    2.5722 C   0  0  0  0  0  0  0  0  0  0  0  0
    3.9846    0.6117    3.4888 C   0  0  0  0  0  0  0  0  0  0  0  0
    1.7130    0.7471    1.9823 Cl  0  0  0  0  0  0  0  0  0  0  0  0
    4.9398   -3.3786    2.1360 C   0  0  0  0  0  0  0  0  0  0  0  0
    4.9059   -3.7174    0.6544 C   0  0  0  0  0  0  0  0  0  0  0  0
    6.2284   -3.6349    1.3623 C   0  0  0  0  0  0  0  0  0  0  0  0
    4.5360   -4.5283    3.0509 C   0  0  0  0  0  0  0  0  0  0  0  0
    4.7380   -5.6969    2.7081 O   0  0  0  0  0  0  0  0  0  0  0  0
    3.9682   -4.1511    4.2308 N   0  0  0  0  0  0  0  0  0  0  0  0
    3.5516   -4.9501    5.3274 C   0  0  0  0  0  0  0  0  0  0  0  0
    3.5271   -6.3521    5.3062 C   0  0  0  0  0  0  0  0  0  0  0  0
    3.1032   -7.0125    6.4585 C   0  0  0  0  0  0  0  0  0  0  0  0
    2.7021   -6.3439    7.6278 C   0  0  0  0  0  0  0  0  0  0  0  0
    2.7094   -4.9232    7.6353 C   0  0  0  0  0  0  0  0  0  0  0  0
    3.1440   -4.2629    6.4722 C   0  0  0  0  0  0  0  0  0  0  0  0
    2.2748   -4.0750    8.7512 C   0  0  0  0  0  0  0  0  0  0  0  0
    2.5286   -2.7456    8.7817 N   0  0  0  0  0  0  0  0  0  0  0  0
    1.9593   -2.3159    9.9154 N   0  5  0  0  0  0  0  0  0  0  0  0
    1.3790   -3.3430   10.5417 N   0  0  0  0  0  0  0  0  0  0  0  0
    1.5636   -4.4656    9.8293 N   0  0  0  0  0  0  0  0  0  0  0  0
    2.3322   -7.1861    8.7943 C   0  0  0  0  0  0  0  0  0  0  0  0
    2.9084   -7.0079   10.0600 C   0  0  0  0  0  0  0  0  0  0  0  0
    2.5591   -7.9026   11.0552 C   0  0  0  0  0  0  0  0  0  0  0  0
    1.6597   -8.9396   10.8178 C   0  0  0  0  0  0  0  0  0  0  0  0
    1.0960   -9.1136    9.6167 N   0  0  0  0  0  0  0  0  0  0  0  0
    1.4318   -8.2540    8.6432 C   0  0  0  0  0  0  0  0  0  0  0  0
    3.1091   -7.7826   12.2971 F   0  0  0  0  0  0  0  0  0  0  0  0
    5.7782    0.4636    4.6663 H   0  0  0  0  0  0  0  0  0  0  0  0
    6.3594   -1.8111    3.8454 H   0  0  0  0  0  0  0  0  0  0  0  0
    2.8067   -1.8369    1.4210 H   0  0  0  0  0  0  0  0  0  0  0  0
    3.7199    1.6022    3.8444 H   0  0  0  0  0  0  0  0  0  0  0  0
    4.5377   -4.7058    0.4016 H   0  0  0  0  0  0  0  0  0  0  0  0
    4.6398   -2.9145   -0.0264 H   0  0  0  0  0  0  0  0  0  0  0  0
    6.8597   -2.7720    1.1722 H   0  0  0  0  0  0  0  0  0  0  0  0
    6.7380   -4.5676    1.5795 H   0  0  0  0  0  0  0  0  0  0  0  0
    3.8758   -3.1552    4.3881 H   0  0  0  0  0  0  0  0  0  0  0  0
    3.8450   -6.8959    4.4276 H   0  0  0  0  0  0  0  0  0  0  0  0
    3.1130   -8.0996    6.4638 H   0  0  0  0  0  0  0  0  0  0  0  0
    3.1453   -3.1759    6.4962 H   0  0  0  0  0  0  0  0  0  0  0  0
    3.5963   -6.1957   10.2636 H   0  0  0  0  0  0  0  0  0  0  0  0
    1.3942   -9.6312   11.6157 H   0  0  0  0  0  0  0  0  0  0  0  0
    0.9440   -8.4081    7.6824 H   0  0  0  0  0  0  0  0  0  0  0  0
  1  2  1  0  0  0  0
  1  6  2  0  0  0  0
  1 32  1  0  0  0  0
  2  3  2  0  0  0  0
  2 33  1  0  0  0  0
  3  4  1  0  0  0  0
  3  8  1  0  0  0  0
  4  5  2  0  0  0  0
  4 34  1  0  0  0  0
  5  6  1  0  0  0  0
  5  7  1  0  0  0  0
  6 35  1  0  0  0  0
  8  9  1  0  0  0  0
  8 10  1  0  0  0  0
  8 11  1  0  0  0  0
  9 10  1  0  0  0  0
  9 36  1  0  0  0  0
  9 37  1  0  0  0  0
 10 38  1  0  0  0  0
 10 39  1  0  0  0  0
 11 12  2  0  0  0  0
 11 13  1  0  0  0  0
 13 14  1  0  0  0  0
 13 40  1  0  0  0  0
 14 15  1  0  0  0  0
 14 19  2  0  0  0  0
 15 16  2  0  0  0  0
 15 41  1  0  0  0  0
 16 17  1  0  0  0  0
 16 42  1  0  0  0  0
 17 18  2  0  0  0  0
 17 25  1  0  0  0  0
 18 19  1  0  0  0  0
 18 20  1  0  0  0  0
 19 43  1  0  0  0  0
 20 21  2  0  0  0  0
 20 24  1  0  0  0  0
 21 22  1  0  0  0  0
 22 23  1  0  0  0  0
 23 24  2  0  0  0  0
 25 26  1  0  0  0  0
 25 30  2  0  0  0  0
 26 27  2  0  0  0  0
 26 44  1  0  0  0  0
 27 28  1  0  0  0  0
 27 31  1  0  0  0  0
 28 29  2  0  0  0  0
 28 45  1  0  0  0  0
 29 30  1  0  0  0  0
 30 46  1  0  0  0  0
M  CHG  1  22  -1
M  END
$$$$
