55
-1 1 C26H26NO2
C                     5.028699191899    -7.663993154824     5.684940180100
C                     3.664974155089    -7.888315158044     5.894695823873
C                     2.717297904084    -7.037934011087     5.312472550787
C                     3.115639129228    -5.953776829579     4.521610271928
C                     4.486421114565    -5.736155675666     4.315611871019
C                     5.435570462631    -6.583388350513     4.891176216215
C                     2.090899499547    -5.013488262859     3.917206626017
N                     2.377499410880    -4.716375912854     2.516956031842
C                     2.314831996589    -5.906340082638     1.640158803038
C                     0.946958427410    -6.563561519792     1.593268484485
C                     0.694807772572    -7.740465024505     2.312422779751
C                    -0.580099637314    -8.317100011618     2.324970687980
C                    -1.625575054827    -7.715815574316     1.616741282687
C                    -1.384633780922    -6.539783232878     0.895914263550
C                    -0.109463031290    -5.968900269751     0.882730882284
C                     1.719410271270    -3.561100716840     1.978124829647
C                     0.566567411847    -3.003314376376     2.542681870811
C                    -0.048305878175    -1.893884633221     1.944965394977
C                     0.444649591642    -1.322688354851     0.767426692399
C                     1.617452766739    -1.876872697170     0.216585919243
C                     2.241464788435    -2.967736210262     0.814960628026
C                    -0.229104505763    -0.136009602946     0.116020738162
C                    -1.773526853892    -0.004386566862     0.349311120330
C                    -1.946354183524     0.333273309564    -1.156060288615
C                    -0.531693368930    -0.250338011221    -1.415650338936
C                     0.489438764454     1.186421894578     0.467193773799
C                     1.916424248579     1.457055127146    -0.128094588279
O                     2.524317458354     2.408700540613     0.425843316213
O                     2.288160073435     0.743482063921    -1.108472361037
H                     5.768008444800    -8.325129127475     6.131145679744
H                     3.337641727566    -8.727848050470     6.504040561445
H                     1.656042263395    -7.222159061114     5.466658909368
H                     4.792035913567    -4.904651078872     3.686019659760
H                     6.494642268348    -6.402852327116     4.721516123316
H                     1.084376250291    -5.434677465504     4.074670946370
H                     2.123190099321    -4.061913372839     4.458426978650
H                     3.058325490737    -6.627687526395     1.992172643053
H                     2.616094974504    -5.591386999235     0.639728293806
H                     1.505335350810    -8.205997367075     2.869305476044
H                    -0.756402100148    -9.232319792252     2.886203649578
H                    -2.618913753336    -8.158842856800     1.625102060361
H                    -2.191719373619    -6.064365706551     0.343602356581
H                     0.067110518446    -5.051964346255     0.327978108389
H                     0.119305441652    -3.440550851476     3.430247077962
H                    -0.941326801824    -1.481303556261     2.408831564890
H                     2.053297844448    -1.382049300592    -0.647646017861
H                     3.163783798857    -3.359373993129     0.390651301294
H                    -2.239793525093    -0.965988370171     0.592465593250
H                    -2.100353991263     0.743109041613     1.081841565536
H                    -2.790531632578    -0.137815441344    -1.672645912769
H                    -1.987352494844     1.411556295944    -1.338304739470
H                     0.156651715829     0.295534846281    -2.060190795667
H                    -0.577957019955    -1.297224183428    -1.736616489442
H                     0.553829618959     1.279159766823     1.557691122721
H                    -0.139302889691     2.023675202709     0.132672701416
