16   
torsion grid (-165,)
C        1.5077339701   -1.4860457001   -0.4043405926
C       -0.9386649401   -1.3353960311   -0.0946440658
C        3.9167337282   -0.1423716210    2.0770501121
C        2.8643444291   -1.2068939987    0.2378727974
N        0.4322861035   -1.1375167301    0.3468972391
O        1.4551260304   -1.9801873582   -1.5312151964
O        2.7250621093   -0.7275474999    1.5692157408
H       -1.4773048793   -2.0013797647    0.5885956409
H       -0.9103644077   -1.7894924467   -1.0856843096
H       -1.4731649681   -0.3807035588   -0.1549072127
H        3.7007704999    0.1955584786    3.0927965978
H        4.2279664779    0.7174907041    1.4665800632
H        4.7382078294   -0.8721992526    2.1076363543
H        3.3751712578   -0.4667627030   -0.3945024255
H        3.4512490217   -2.1346211571    0.2084987642
H        0.6270244412   -0.7540875346    1.2639269940
16   
torsion grid (-150,)
C        2.0434781694   -1.3788519894   -0.7663031680
C       -0.4102338588   -1.2178275140   -0.5228714973
C        4.2290109510   -0.6853077485    2.1018316434
C        3.3704396625   -1.3802474497   -0.0084933879
N        0.9415544734   -1.2290692077    0.0117109278
O        2.0373340772   -1.4957942885   -1.9923651050
O        3.1775163733   -1.3387738686    1.4016957483
H       -0.9346239155   -0.3004239798   -0.2340884349
H       -0.9831026042   -2.0815481214   -0.1664734977
H       -0.3420572048   -1.2627745920   -1.6103349900
H        3.9656638110   -0.7022461172    3.1616769868
H        4.3382036764    0.3575802235    1.7716176453
H        5.1872769448   -1.2050940348    1.9631148681
H        3.9336088766   -0.5036682096   -0.3554916076
H        3.9308580842   -2.2764240917   -0.3032238114
H        1.1024973812   -1.1690433419    1.0100363149
16   
torsion grid (-135,)
C        2.0746621119   -1.3811354144   -0.7571743890
C       -0.3697832121   -1.1593530821   -0.4732460796
C        4.1571920540   -0.6335131489    2.0897817006
C        3.4095011588   -1.4827260635   -0.0169480256
N        0.9866365694   -1.2442874000    0.0424943389
O        2.0516081770   -1.4175793494   -1.9879905097
O        3.2476221561   -1.4835967918    1.4000398496
H       -0.8652456138   -0.2499567244   -0.1162969027
H       -0.9629689629   -2.0295378624   -0.1696244325
H       -0.3142168360   -1.1318197184   -1.5620659186
H        3.9106331925   -0.6998320976    3.1518698560
H        4.0571587032    0.4102975204    1.7600564048
H        5.1972105901   -0.9562365837    1.9444669497
H        4.0207320672   -0.6350310641   -0.3487834481
H        3.9082667266   -2.4023861690   -0.3448276723
H        1.1614805188   -1.2629543878    1.0402757329
16   
torsion grid (-120,)
C        2.1226428326   -1.3855188194   -0.7391581878
C       -0.3135595940   -1.1210734885   -0.4175326854
C        4.0715379196   -0.5839400483    2.0683424005
C        3.4581715857   -1.5848258541   -0.0172268493
N        1.0453660036   -1.2654363486    0.0784809359
O        2.0882966096   -1.3451449931   -1.9694473012
O        3.3308230034   -1.6031057331    1.4039622917
H       -0.7896441095   -0.2310609005    0.0077435528
H       -0.9202489729   -2.0002378401   -0.1715629333
H       -0.2658671484   -1.0174580702   -1.5021434273
H        3.8608854718   -0.6836667372    3.1355796754
H        3.7680640117    0.4179657298    1.7331835925
H        5.1509208920   -0.7045502885    1.9050098524
H        4.1323626710   -0.7905253806   -0.3553027237
H        3.8754619512   -2.5401698919   -0.3539380476
H        1.2261235676   -1.3699492229    1.0699683942
16   
torsion grid (-105,)
C        1.8329747997   -0.3369765358    0.3148511242
C        1.2583376202   -2.2855891982   -1.0927171401
C        4.9165114630   -0.6229421076    1.6842935495
C        2.9912527326    0.5128354000    0.8480502800
N        2.2107938103   -1.4048528937   -0.4356297219
O        0.6689648154   -0.0262789322    0.5683807579
O        4.2800563639   -0.0233705844    0.5584794005
H        1.5068334289   -3.3336384625   -0.8968444596
H        1.2426454390   -2.1201783429   -2.1765136408
H        0.2674832102   -2.0699640817   -0.6912382506
H        5.8710663079   -1.0219242366    1.3338463559
H        4.3137205787   -1.4424707481    2.1006806342
H        5.1054703177    0.1183044890    2.4722499652
H        2.8363880778    0.6542983860    1.9230036473
H        2.9178982013    1.4955411945    0.3705357545
H        3.2036378028   -1.4922229571   -0.6179046536
16   
torsion grid (-90,)
C        1.8497248841   -0.3554168995    0.3468048792
C        1.3049354580   -2.3292572690   -1.0400543061
C        4.7992198495   -0.7162547748    1.6415406899
C        2.9876428192    0.5694075858    0.7964949755
N        2.2420500702   -1.3911097785   -0.4425087861
O        0.6877728216   -0.1244991558    0.6807264368
O        4.2922982240    0.0549800140    0.5538147106
H        1.6309898228   -3.3601056729   -0.8680645130
H        1.2058517214   -2.1625213432   -2.1191487130
H        0.3319525332   -2.1768913214   -0.5715465087
H        5.7803061354   -1.0874917674    1.3372929606
H        4.1452200888   -1.5683494802    1.8739858272
H        4.9114337980   -0.0970365936    2.5417513091
H        2.8300705432    0.8077466939    1.8546603713
H        2.8965027522    1.4997544668    0.2271235619
H        3.2230410317   -1.4164648205   -0.6944468281
16   
torsion grid (-75,)
C        1.9330948467   -0.3041097567    0.4352207567
C        1.3403541054   -2.2740957338   -0.9438242068
C        4.7420728467   -0.7936240087    1.6389864828
C        3.0728888093    0.6624913402    0.7862296133
N        2.2854657356   -1.2961000323   -0.4280452142
O        0.8015278524   -0.1381909680    0.8889278421
O        4.3794685276    0.1295679857    0.6126812861
H        1.7154263345   -3.2917802943   -0.7930491467
H        1.1511408181   -2.1193877302   -2.0124273456
H        0.4026702488   -2.1528178206   -0.4003716434
H        5.7431831582   -1.1569066690    1.3973456013
H        4.0482951788   -1.6434259534    1.6873761823
H        4.7642699560   -0.2976960124    2.6191905183
H        2.9073228529    1.0049157383    1.8151500278
H        2.9978071869    1.5294024285    0.1227512955
H        3.2435178233   -1.2911819110   -0.7574137938
16   
torsion grid (-60,)
C        2.2293004599   -0.0031408872    0.6953260514
C        1.4018652377   -1.9486300693   -0.6017504914
C        4.9346613221   -0.7229111679    1.6915044309
C        3.4299875525    0.9374912717    0.8784666633
N        2.4168196481   -0.9674601610   -0.2500094225
O        1.1890336348    0.1556116195    1.3315343038
O        4.7060820286    0.3230701227    0.7476297575
H        1.7852990648   -2.9677166327   -0.4815978710
H        1.0643811963   -1.8155579548   -1.6358569910
H        0.5526242098   -1.8044524888    0.0669613201
H        5.9433986757   -1.0963685259    1.5034252098
H        4.2157844981   -1.5438856731    1.5801869582
H        4.8769486654   -0.3412976778    2.7206928965
H        3.3132306810    1.4043638806    1.8648075644
H        3.3870910279    1.7211656014    0.1162483923
H        3.3212161293   -0.9927840776   -0.7056033762
16   
torsion grid (-45,)
C        2.2992959675   -0.1699729511    0.7105330493
C        1.5043616230   -2.1138025899   -0.6050279698
C        4.9845203344   -0.7668031534    1.5097339219
C        3.4044047207    0.8943131852    0.7976597477
N        2.4040875232   -0.9926507316   -0.3747211225
O        1.3904146314   -0.2337319225    1.5353002765
O        4.7363081974    0.3916651779    0.7146682845
H        1.9202651006   -3.0561802364   -0.2269328338
H        1.3040785941   -2.2172164857   -1.6752056895
H        0.5690136879   -1.9129485338   -0.0817337562
H        6.0490162234   -0.9868387454    1.4058494110
H        4.4021706343   -1.6333304247    1.1742262510
H        4.7563837295   -0.5798137017    2.5684622210
H        3.2471241983    1.4141099647    1.7509072051
H        3.2994362667    1.6135450818   -0.0199691148
H        3.2385757144   -0.9050272767   -0.9418856517
16   
torsion grid (-30,)
C        2.2621019888   -0.2325260430    0.7681265623
C        1.3699524738   -2.1372019166   -0.5425049981
C        4.8462008976   -0.8733902080    1.6089790330
C        3.3519041427    0.8495812526    0.7939139121
N        2.2466097026   -0.9865986987   -0.3727637510
O        1.4726981795   -0.3884283812    1.6970408371
O        4.6894401392    0.3559460490    0.9032700834
H        1.8754666391   -3.0767851645   -0.2865539735
H        1.0198152367   -2.1906700937   -1.5772083839
H        0.5141705997   -2.0118284565    0.1213410453
H        5.9219526145   -1.0536539514    1.6625471862
H        4.3686394801   -1.7131111930    1.0886911653
H        4.4387466970   -0.8130860685    2.6269240861
H        3.1173303841    1.4885683412    1.6532346720
H        3.3219545199    1.4539443111   -0.1182871293
H        2.9984701258   -0.8462580785   -1.0358501947
16   
torsion grid (-15,)
C        2.4164622661   -0.2068816477    0.7192862905
C        1.4153160840   -2.0637903414   -0.5794245685
C        4.9647083863   -0.7169744434    1.6446189954
C        3.4452217900    0.9304128061    0.6761721473
N        2.2731086005   -0.8931151874   -0.4549436795
O        1.7821205091   -0.4730431466    1.7385060704
O        4.7841368036    0.5463448989    1.0075607300
H        1.9804968423   -2.9961368359   -0.4587162345
H        0.9262565526   -2.0661492612   -1.5575661522
H        0.6579961242   -2.0138508343    0.2034500724
H        6.0377535755   -0.8026090317    1.8294220345
H        4.6480411528   -1.5503588362    1.0031391288
H        4.4244093194   -0.7792199178    2.5966277192
H        3.0967922377    1.6797091969    1.3956851683
H        3.4860835374    1.3889349615   -0.3184454391
H        2.8917158168   -0.6608105450   -1.2205161973
16   
torsion grid (0,)
C        3.2929600455   -0.9162379868   -0.0923958928
C        0.9856839189   -1.7757518731   -0.3829394295
C        4.4453943855   -0.5973699821    2.4019752213
C        4.1331261458    0.3407907419    0.1621888129
N        1.9438829138   -0.7015832814   -0.1608726425
O        3.8076508096   -2.0247691648   -0.2314430069
O        4.7021766265    0.4497540728    1.4678746178
H        0.2863963149   -1.5062257708   -1.1806221493
H        0.4198625986   -2.0009079074    0.5286123327
H        1.5441853803   -2.6644598048   -0.6778619717
H        4.9162161676   -0.2780192277    3.3344380880
H        4.8754507366   -1.5509175402    2.0787116602
H        3.3692253734   -0.7347280261    2.5794581437
H        3.5400357691    1.2477457710   -0.0157160383
H        4.9498122471    0.3162711045   -0.5678170640
H        1.5957561007    0.2302214635    0.0182051452
16   
torsion grid (15,)
C        3.3023180149   -0.9185341970   -0.1773040944
C        0.9671890911   -1.7525641383   -0.2766919997
C        4.3137432606   -0.6261530513    2.3737275596
C        4.1708085397    0.3099471475    0.1233795837
N        1.9548026729   -0.6970369291   -0.0999947883
O        3.7951328672   -2.0107834424   -0.4532080640
O        4.5139002722    0.4850983266    1.5021254702
H        0.1972897172   -1.4424102271   -0.9902368625
H        0.4884839092   -2.0155854418    0.6739684914
H        1.4842360072   -2.6303615149   -0.6649228274
H        4.6531545716   -0.2934027009    3.3570935506
H        4.8956779024   -1.5022903643    2.0640761301
H        3.2551433315   -0.9104189272    2.4413675912
H        3.6746833345    1.2331447079   -0.1974750468
H        5.0877580687    0.1811809885   -0.4624707797
H        1.6390268505    0.2209565482    0.1832239916
16   
torsion grid (30,)
C        3.3231952038   -0.9111067817   -0.2704814471
C        0.9827874003   -1.7341158651   -0.2091680725
C        4.2128842569   -0.5754173267    2.3570085324
C        4.2227002753    0.2802692056    0.0909084889
N        1.9926447223   -0.6998200587   -0.0341592321
O        3.7761860925   -1.9537486431   -0.7374418759
O        4.3350725917    0.5510514576    1.4906403468
H        0.1246611862   -1.3405752007   -0.7628456601
H        0.6362955546   -2.1266328131    0.7545594497
H        1.4336453509   -2.5476357518   -0.7779048480
H        4.4063046266   -0.2013191464    3.3646217597
H        4.9460843340   -1.3561992394    2.1147718785
H        3.2080337900   -1.0145135059    2.3251342202
H        3.8520882175    1.2012642462   -0.3703331405
H        5.2093874683    0.0451497364   -0.3248226441
H        1.7306497197    0.1636509659    0.4245188274
16   
torsion grid (45,)
C        3.2899004530   -0.9501830018   -0.3080476412
C        0.9357433659   -1.7244138541   -0.1802798481
C        4.1802530981   -0.5705761766    2.3918304915
C        4.2400521644    0.1817992745    0.1131135187
N        1.9917867263   -0.7545236367    0.0696010809
O        3.6802614784   -1.9179044144   -0.9573598311
O        4.1898134630    0.5371361353    1.4926721747
H        0.0620443321   -1.2342557190   -0.6214729790
H        0.6303895144   -2.2343091975    0.7414266527
H        1.3215288580   -2.4653782809   -0.8809144608
H        4.2208697265   -0.1479285754    3.3978514728
H        5.0554489491   -1.2171841802    2.2368502060
H        3.2734944130   -1.1788346563    2.2914656830
H        4.0062425479    1.0936342601   -0.4445917345
H        5.2475675066   -0.1536206629   -0.1626907938
H        1.7963101479    0.0495851402    0.6535081458
16   
torsion grid (60,)
C        3.2620271000   -0.9766319318   -0.3939552376
C        0.9048926984   -1.7326398403   -0.2324520956
C        4.2179752538   -0.5624560952    2.3864409673
C        4.2504436674    0.0930509411    0.0950172636
N        2.0006060972   -0.8368074986    0.1043321582
O        3.6005140404   -1.8406680077   -1.2007306203
O        4.0766538643    0.5023560961    1.4464777804
H        0.0537814633   -1.1714705019   -0.6325553440
H        0.5740686412   -2.3039035102    0.6427153984
H        1.2630314839   -2.4264831629   -0.9935990788
H        4.0839587442   -0.1227318413    3.3769277445
H        5.2194207932   -1.0109361382    2.3227141190
H        3.4699412532   -1.3501798713    2.2337440563
H        4.1331698919    0.9931036211   -0.5156494331
H        5.2567310461   -0.3123667462   -0.0702827068
H        1.8535961188   -0.0922841755    0.7753588454
16   
torsion grid (75,)
C        1.6878645872   -1.3075576084   -0.3898782803
C       -0.6778104893   -1.4689154984    0.3264979717
C        3.3879083296   -0.5997640834    2.0976250636
C        2.9729157507   -0.4818894959   -0.2366460993
N        0.6464950269   -0.8689751194    0.3694072122
O        1.6351474939   -2.2550204207   -1.1730568763
O        3.0748771824    0.2380616079    0.9854575004
H       -1.0076637131   -1.7549474808    1.3309160258
H       -0.6213242424   -2.3600370972   -0.2996013896
H       -1.4118675405   -0.7792579025   -0.1058222762
H        3.4298556552    0.0460678595    2.9772414956
H        4.3640642652   -1.0844400556    1.9581643531
H        2.6261254841   -1.3756353473    2.2514863304
H        2.9966058008    0.2607990948   -1.0398315601
H        3.8199839594   -1.1645105729   -0.3770661773
H        0.8174844916   -0.0531045546    0.9451524755
16   
torsion grid (90,)
C        1.6178507666   -1.3116592172   -0.4265721874
C       -0.7461679862   -1.4693586386    0.2848266017
C        3.4678426944   -0.5290415779    2.1170907299
C        2.9340892775   -0.5579622820   -0.1986837004
N        0.6010593285   -0.9323107912    0.3930292289
O        1.5314426023   -2.1654088941   -1.3089765862
O        2.9715849148    0.2073909830    1.0007230926
H       -1.0921054279   -1.8456323258    1.2533132578
H       -0.7227880009   -2.2913127834   -0.4315755709
H       -1.4494646611   -0.7085056141   -0.0729909284
H        3.4204646230    0.1358513255    2.9822964837
H        4.5103335968   -0.8335407906    1.9531285023
H        2.8616460656   -1.4243243455    2.3142157914
H        3.0584477692    0.1411401534   -1.0316498337
H        3.7520655182   -1.2858531400   -0.2474449283
H        0.7994869589   -0.1707651850    1.0310853392
16   
torsion grid (105,)
C        1.6009329732   -1.2972965449   -0.4640832431
C       -0.7751091173   -1.4551875154    0.2007036544
C        3.5910394689   -0.4376483309    2.1372258996
C        2.9353975207   -0.6121192233   -0.1509276744
N        0.5843380204   -0.9696709318    0.3759402632
O        1.5099405166   -2.0677072211   -1.4200909530
O        2.9152930532    0.1714922189    1.0399434779
H       -1.1440621518   -1.9152593341    1.1235044901
H       -0.7648186642   -2.2031067123   -0.5929932036
H       -1.4525599023   -0.6428753429   -0.0870308657
H        3.4809383380    0.2352434564    2.9906185718
H        4.6594926592   -0.5686564707    1.9196983844
H        3.1546173441   -1.4146065893    2.3892498218
H        3.1627825336    0.0530932922   -0.9903571007
H        3.7102133283   -1.3856874157   -0.1211933481
H        0.7942973967   -0.2679081018    1.0760046504
16   
torsion grid (120,)
C        1.5518446964   -1.2980579264   -0.4713111875
C       -0.8368820244   -1.4384467438    0.1456376846
C        3.6978682589   -0.3811911492    2.1510559110
C        2.9029640916   -0.6900012777   -0.0849797629
N        0.5297514022   -0.9962875257    0.3699288259
O        1.4584447912   -1.9996542965   -1.4790243734
O        2.8473975084    0.0886392131    1.1095643333
H       -1.2237647389   -1.9647266460    1.0248200447
H       -0.8341722189   -2.1193975860   -0.7062804081
H       -1.4950742570   -0.5913689371   -0.0795463341
H        3.5375607471    0.2735314681    3.0106782263
H        4.7546842459   -0.3306012105    1.8563466363
H        3.4539760617   -1.4147811931    2.4347301219
H        3.2274154366   -0.0532458695   -0.9152946587
H        3.6184705139   -1.5150249961   -0.0001757380
H        0.7517875430   -0.3659626173    1.1315245193
16   
torsion grid (135,)
C        1.4838951368   -1.3187039609   -0.5092092591
C       -0.9173208199   -1.4468646173    0.0590519333
C        3.7636594734   -0.3304439601    2.1045018037
C        2.8436168064   -0.7838710448   -0.0559110541
N        0.4544083477   -1.0519391444    0.3341632783
O        1.3931062148   -1.9482269812   -1.5637874317
O        2.7566250413   -0.0226029347    1.1469328670
H       -1.3252421165   -2.0365804182    0.8870838162
H       -0.9168797402   -2.0549752661   -0.8462490883
H       -1.5561776067   -0.5708726854   -0.1017220313
H        3.5677923488    0.2898913644    2.9820412812
H        4.7666353967   -0.0986953366    1.7208086748
H        3.7279789321   -1.3898022569    2.3955924696
H        3.2524241376   -0.1695050951   -0.8664730865
H        3.5001584697   -1.6535783044    0.0673348443
H        0.6776513384   -0.4858124913    1.1442135486
16   
torsion grid (150,)
C        1.4725786499   -1.3206036118   -0.4848449751
C       -0.9449937322   -1.4174451191    0.0135709824
C        3.8471492019   -0.2706124564    2.1111302739
C        2.8325727569   -0.8612262768    0.0388176828
N        0.4271095844   -1.0680613702    0.3428834775
O        1.3943717916   -1.8843227263   -1.5771003452
O        2.7150552698   -0.1390507784    1.2603249849
H       -1.3835563204   -2.0470480734    0.7953601332
H       -0.9348162265   -1.9703110762   -0.9263745838
H       -1.5629064321   -0.5204567861   -0.1083636209
H        3.6379769029    0.3091753201    3.0127928609
H        4.7553087880    0.1243054323    1.6347061149
H        4.0172438086   -1.3212555130    2.3864654691
H        3.3080676233   -0.2487758034   -0.7376231920
H        3.4417110840   -1.7651856780    0.1725620863
H        0.6428548640   -0.5732597892    1.2000903219
16   
torsion grid (165,)
C        1.4579063798   -1.3375313725   -0.4640687931
C       -0.9748652106   -1.3830975013   -0.0445186334
C        3.9041321424   -0.2191600728    2.0916735882
C        2.8163108252   -0.9505213740    0.1154014924
N        0.3957647769   -1.0955989719    0.3457565973
O        1.3935767719   -1.8442614708   -1.5847083482
O        2.6828374978   -0.2909823369    1.3680083996
H       -1.4577738689   -2.0387855540    0.6881089110
H       -0.9508222264   -1.8856618919   -1.0120060423
H       -1.5607478138   -0.4614081692   -0.1370183924
H        3.6902315346    0.2934845812    3.0318844477
H        4.6642506120    0.3489982757    1.5368677617
H        4.2976448199   -1.2230785582    2.3067023773
H        3.3289547769   -0.3125674980   -0.6167878371
H        3.3988337578   -1.8771340885    0.2190087785
H        0.5958140851   -0.6507437347    1.2334588545
16   
torsion grid (180,)
C        1.5102132437   -1.4091405204   -0.4132384229
C       -0.9367066551   -1.3687159974   -0.0761434584
C        3.9528535572   -0.1697187853    2.1084334676
C        2.8607699784   -1.0716174470    0.2121684451
N        0.4288553842   -1.1108011970    0.3510638388
O        1.4666459997   -1.9158273945   -1.5349575626
O        2.7094520961   -0.4943918206    1.5018514300
H       -1.4411392022   -2.0507379125    0.6173221464
H       -0.8984444074   -1.8295051697   -1.0637320803
H       -1.5107620284   -0.4374612762   -0.1390205955
H        3.7307133793    0.2630306536    3.0860782463
H        4.5094880328    0.5627369739    1.5063224773
H        4.5758117669   -1.0657826221    2.2422030182
H        3.3813683982   -0.3845257066   -0.4696086315
H        3.4452781901   -2.0013905644    0.2612063060
H        0.6137684168   -0.6984090156    1.2573974466
