19   
torsion grid (-165,)
C        2.3224068598   -2.6530004006    5.0746606357
C        1.5828462788   -0.6859113597    1.3359153179
C        1.8619712061   -1.2569239285    2.5763892263
C       -0.7030895134   -0.4609622726    2.0579108085
C        0.2739451709   -0.2824495453    1.0745699496
C        0.8214143124   -1.4116437573    3.5031118449
C        0.5397122401   -1.1515182701    6.0729231186
C       -0.1224045418   -2.4395854847    5.7182258348
C        1.0662171964   -1.9692551913    4.8750557683
N        3.3384020892   -3.1986596515    5.2375622819
N       -0.4326714521   -1.0122293189    3.2436104816
Cl      -0.1519567325    0.4423494896   -0.4595108539
H        2.3621323891   -0.5547711366    0.5913456308
H        2.8688554304   -1.5836555709    2.8158407645
H       -1.7295959109   -0.1488612409    1.8771271131
H        0.0370358592   -0.2297319669    5.7998040224
H        1.1759495884   -1.1084546032    6.9505412991
H        0.0492657393   -3.3040081296    6.3505853087
H       -1.0776689420   -2.3945301640    5.2078475655
19   
torsion grid (-150,)
C        1.6831241642   -1.2920628108    5.7943828058
C        0.7025085765    0.4005585515    1.9863767282
C        1.0101805944   -0.1364707897    3.2358090891
C        0.3723020448   -1.8526748781    1.2035213989
C        0.3782251264   -0.4771993304    0.9531895421
C        0.9836464779   -1.5277623484    3.4029848468
C        0.4901621581   -3.4246008174    5.1228879174
C        1.9193288751   -3.5771598845    4.7235256054
C        1.2921442957   -2.1754181329    4.7207812847
N        1.9968712066   -0.5799889705    6.6609394129
N        0.6680124236   -2.3627607960    2.4008465580
Cl      -0.0195029865    0.1218644294   -0.6414896492
H        0.7139491778    1.4733557125    1.8194353462
H        1.2674925917    0.5156828703    4.0640881739
H        0.1205182810   -2.5552052842    0.4117474593
H       -0.2685818633   -3.7182408863    4.4057576170
H        0.2252420230   -3.5131123943    6.1710269319
H        2.6595971058   -3.7738291618    5.4915756834
H        2.1280089210   -3.9740958527    3.7362418512
19   
torsion grid (-135,)
C        1.5198663817   -1.2844867180    5.8408712607
C        0.8268911159    0.3852550590    1.9603884255
C        1.1031033471   -0.1516205523    3.2170970919
C        0.2194032430   -1.8333332233    1.2493357665
C        0.3758475309   -0.4745860296    0.9600406435
C        0.9116811063   -1.5241902160    3.4265906596
C        0.5468896782   -3.5029204589    5.0998915436
C        1.9918923901   -3.5075069754    4.7242667169
C        1.2218091876   -2.1746085816    4.7427800782
N        1.7649984138   -0.5677339133    6.7255046963
N        0.4821651573   -2.3434975173    2.4544796440
Cl       0.0089802560    0.1258790702   -0.6415423650
H        0.9599792999    1.4444507880    1.7622333061
H        1.4556798148    0.4870074163    4.0205272075
H       -0.1281595529   -2.5226429264    0.4826189573
H       -0.1666602383   -3.8534376942    4.3626815458
H        0.2770630006   -3.6425331663    6.1411550498
H        2.7376379175   -3.6489808697    5.4991945497
H        2.2552603174   -3.8585858035    3.7322660181
19   
torsion grid (-120,)
C        1.3442211133   -1.2775947485    5.8715038169
C        0.9447259190    0.3434808554    1.9185429910
C        1.1961065044   -0.1919412184    3.1801826237
C        0.0563022956   -1.8040048200    1.2880805025
C        0.3617628860   -0.4813370668    0.9566604111
C        0.8442060341   -1.5248990653    3.4362423105
C        0.6109124872   -3.5654719741    5.0686479356
C        2.0618152118   -3.4207155391    4.7341315226
C        1.1548034039   -2.1748029874    4.7540475488
N        1.5063476709   -0.5546335676    6.7701218708
N        0.2939198533   -2.3119984683    2.5004114076
Cl       0.0165680608    0.1199283400   -0.6493376489
H        1.1976060863    1.3733875248    1.6857160158
H        1.6478137814    0.4187788406    3.9555237406
H       -0.3930341853   -2.4664566903    0.5511931222
H       -0.0461610689   -3.9724854050    4.3088067731
H        0.3329157091   -3.7520714011    6.1002664867
H        2.7978932274   -3.5021827543    5.5268047475
H        2.3885461301   -3.7266249821    3.7457035385
19   
torsion grid (-105,)
C        1.1584061535   -1.2906947658    5.8816763934
C        1.0606445650    0.2973102014    1.8676642767
C        1.3019473932   -0.2492083921    3.1254083890
C       -0.1191583228   -1.7295772133    1.3193579274
C        0.3332190374   -0.4612015091    0.9492284317
C        0.7946846129   -1.5224117906    3.4247497371
C        0.6875069663   -3.6202283497    5.0004848709
C        2.1332997291   -3.3243746035    4.7373163712
C        1.1023102015   -2.1797447597    4.7421615779
N        1.2162938969   -0.5738733238    6.7978634802
N        0.1091444132   -2.2472070650    2.5309610301
Cl      -0.0085714223    0.1575072639   -0.6506706597
H        1.4306411256    1.2830107397    1.6024981245
H        1.8630875851    0.3083426210    3.8692377050
H       -0.6817904449   -2.3405436984    0.6166316371
H        0.1028147659   -4.0696777453    4.2063858640
H        0.3880684728   -3.8630965241    6.0141636145
H        2.8370143194   -3.3541019063    5.5624732811
H        2.5379080101   -3.5744893576    3.7618172821
19   
torsion grid (-90,)
C        0.9555543678   -1.3110619887    5.8931307679
C        1.1772792596    0.2227270935    1.8131181756
C        1.4186093348   -0.3367451424    3.0646613360
C       -0.2912947929   -1.6378603964    1.3767302063
C        0.3016950326   -0.4458255448    0.9552588459
C        0.7672055609   -1.5274844175    3.4186781601
C        0.7789769660   -3.6587848436    4.9496347610
C        2.2042416673   -3.2126142710    4.7909628706
C        1.0640027346   -2.1825565090    4.7424927626
N        0.8836779998   -0.6074025423    6.8186113585
N       -0.0605069312   -2.1674021844    2.5837927785
Cl      -0.0492025256    0.1909810613   -0.6353144829
H        1.6575020720    1.1467406098    1.5058813423
H        2.0923742592    0.1478939395    3.7653206649
H       -0.9701790826   -2.1776932641    0.7200424785
H        0.2924744099   -4.1473526514    4.1133015037
H        0.4402000324   -3.9575281296    5.9356091782
H        2.8487683253   -3.1929244344    5.6634653574
H        2.7008699176   -3.4037809187    3.8448238914
19   
torsion grid (-75,)
C        0.7479632937   -1.3656667334    5.8882654200
C        1.2856817043    0.1176473873    1.7425866145
C        1.5435197603   -0.4589087406    2.9837204452
C       -0.4578510926   -1.5239095045    1.4586741118
C        0.2611717468   -0.4304591884    0.9690105640
C        0.7654279317   -1.5449166490    3.4079721206
C        0.8909409021   -3.6958499851    4.8966890315
C        2.2735275691   -3.1057944513    4.8654876589
C        1.0464043460   -2.1953166593    4.7394331584
N        0.5233092389   -0.6929620208    6.8123685414
N       -0.2082560227   -2.0701294155    2.6542645908
Cl      -0.1212151192    0.2329135314   -0.6030933248
H        1.8629889222    0.9628898628    1.3805735389
H        2.3309778302   -0.0692314285    3.6225230304
H       -1.2550347079   -1.9685406977    0.8667662129
H        0.5237107426   -4.2116332661    4.0164568370
H        0.5048688342   -4.0561319665    5.8439628180
H        2.8385139188   -3.0494490400    5.7899566182
H        2.8648033610   -3.2271976888    3.9630635810
19   
torsion grid (-60,)
C        0.5381820571   -1.4314652759    5.8741454561
C        1.3821406239    0.0041977080    1.6636408499
C        1.6494520879   -0.5831279706    2.8994189249
C       -0.5912604933   -1.3782636206    1.5531530305
C        0.2366497981   -0.4061371322    0.9820267498
C        0.7658951148   -1.5452611227    3.4035334780
C        1.0044279966   -3.7057474991    4.8565074997
C        2.3186073947   -2.9802208035    4.9534628579
C        1.0262547850   -2.1915082765    4.7416056751
N        0.1589829692   -0.8146290401    6.7865953550
N       -0.3298517985   -1.9364418884    2.7390026601
Cl      -0.1673062574    0.2774765584   -0.5757969944
H        2.0412354164    0.7555838049    1.2396225985
H        2.5274033705   -0.2958255367    3.4706685855
H       -1.4868724602   -1.7121639992    1.0334374362
H        0.7673792393   -4.2351835977    3.9399763484
H        0.5786233049   -4.1280129939    5.7600889911
H        2.7978932488   -2.8989053925    5.9232778911
H        2.9932198922   -3.0246147592    4.1039425921
19   
torsion grid (-45,)
C        0.3843053212   -1.5258303086    5.8698222170
C        1.4722383140   -0.1183367767    1.5962748416
C        1.7458327096   -0.7132793782    2.8287199930
C       -0.6798251050   -1.2039971986    1.6698467489
C        0.2340771003   -0.3734356993    1.0101821535
C        0.7785821212   -1.5334810213    3.4194367698
C        1.1234169316   -3.7100051178    4.8247517572
C        2.3572074230   -2.8765337455    5.0378440259
C        1.0233602977   -2.1923992571    4.7533621114
N       -0.1132240932   -0.9872251107    6.7746168488
N       -0.4108160726   -1.7723919225    2.8470651994
Cl      -0.1852487395    0.3307911255   -0.5343071234
H        2.1958074587    0.5263290071    1.1067409624
H        2.6926037991   -0.5334620265    3.3287446457
H       -1.6519793979   -1.4119264171    1.2275630805
H        1.0055157249   -4.2304241247    3.8800883933
H        0.6693707215   -4.1955380638    5.6816430851
H        2.7572134233   -2.7879267847    6.0421467341
H        3.0949098413   -2.8450481751    4.2422458410
19   
torsion grid (-30,)
C        0.2311594659   -1.6391042384    5.8414802721
C        1.5030696360   -0.2556442304    1.5046077439
C        1.7866124375   -0.8427376023    2.7395571815
C       -0.7555657405   -1.0572191837    1.7591807093
C        0.2067967651   -0.3697617476    1.0088022639
C        0.7704627721   -1.5203943114    3.4209938331
C        1.2416929682   -3.7010214334    4.7840808203
C        2.3710707811   -2.7654487836    5.1130137226
C        1.0065879533   -2.1917775414    4.7488046119
N       -0.3675295787   -1.1960811558    6.7363721514
N       -0.4766383091   -1.6218635996    2.9343073479
Cl      -0.2281948320    0.3370781326   -0.5301692775
H        2.2648485241    0.2815425308    0.9478913691
H        2.7793228318   -0.7551275823    3.1687059595
H       -1.7754949119   -1.1508043205    1.3916904474
H        1.2472137574   -4.1969597333    3.8189278499
H        0.7690002319   -4.2545991732    5.5880701351
H        2.6840302307   -2.6731491008    6.1472550746
H        3.1648423621   -2.6509560385    4.3824566024
19   
torsion grid (-15,)
C        0.1028424869   -1.7771222280    5.8229255324
C        1.5170359791   -0.3774245557    1.4460379720
C        1.8093670851   -0.9696801300    2.6762951407
C       -0.8000712936   -0.8788789566    1.8689865413
C        0.1865256179   -0.3351981726    1.0374073499
C        0.7658657625   -1.5015830041    3.4420654968
C        1.3649703212   -3.6837979333    4.7488362187
C        2.3741746650   -2.6681040939    5.1981844164
C        0.9930701216   -2.1956399436    4.7580151886
N       -0.5753626668   -1.4536125833    6.7118421111
N       -0.5137759893   -1.4519199495    3.0378674925
Cl      -0.2593111567    0.3925238431   -0.4888178957
H        2.3009713280    0.0488607467    0.8275402814
H        2.8339494565   -0.9927644289    3.0308939813
H       -1.8470378554   -0.8480011030    1.5740674523
H        1.4842478077   -4.1284082468    3.7660814345
H        0.8874706808   -4.3146497766    5.4907446243
H        2.5961218580   -2.5937697425    6.2570191258
H        3.2116384074   -2.4531383556    4.5441018241
19   
torsion grid (0,)
C       -0.0192952571   -1.9009341001    5.7732393865
C        1.5177527168   -0.5316943582    1.3657646378
C        1.8076527417   -1.1297687969    2.5922454943
C       -0.8125978274   -0.7076020674    1.9407595611
C        0.1807980608   -0.3186369970    1.0361350806
C        0.7534522302   -1.5011180444    3.4374108720
C        1.4899238361   -3.6422067342    4.7377607197
C        2.3592523781   -2.5478071734    5.2753619962
C        0.9690969016   -2.1934743465    4.7538226829
N       -0.7630635972   -1.6924946656    6.6436274807
N       -0.5299038165   -1.2873094058    3.1082274108
Cl      -0.2590156351    0.4315301423   -0.4811408021
H        2.3104026738   -0.2294535376    0.6881615033
H        2.8425441694   -1.2880314273    2.8749961821
H       -1.8634157679   -0.5443557095    1.7102672621
H        1.7121515199   -4.0426165055    3.7537918169
H        1.0303324029   -4.3376809337    5.4317194360
H        2.4963407015   -2.4802639830    6.3489128223
H        3.2142823143   -2.2249580404    4.6926185395
19   
torsion grid (15,)
C       -0.1322501917   -2.0386467348    5.7126435402
C        1.4917493216   -0.6650830744    1.3019788827
C        1.7666426576   -1.2910281765    2.5160302239
C       -0.8055256825   -0.5223247861    2.0052090298
C        0.1782066378   -0.2735968134    1.0445551784
C        0.7206625112   -1.5113689262    3.4253578454
C        1.6103304289   -3.5878314014    4.7351774276
C        2.3270938151   -2.4159184990    5.3245649884
C        0.9291782281   -2.2053160919    4.7399072814
N       -0.9292260308   -1.9454210537    6.5552808102
N       -0.5371402560   -1.1276794510    3.1645942985
Cl      -0.2396291557    0.5224218802   -0.4556154010
H        2.2774411239   -0.4792825174    0.5760557329
H        2.7838010484   -1.5983398367    2.7359911044
H       -1.8370297859   -0.2232324556    1.8306576108
H        1.9152135327   -3.9486771813    3.7580236337
H        1.2003132952   -4.3385596796    5.4019957378
H        2.4043333713   -2.3522722965    6.4043734384
H        3.1598225654   -1.9758107524    4.7872656765
19   
torsion grid (30,)
C       -0.2072318439   -2.1931052631    5.6533305101
C        1.4622302757   -0.7931659660    1.2550765387
C        1.7168287446   -1.4565540604    2.4523861819
C       -0.7602582856   -0.3670298336    2.0734580548
C        0.1964795913   -0.2375313821    1.0644422655
C        0.6993287882   -1.5444045614    3.4166632467
C        1.7333960144   -3.5420480440    4.7647481451
C        2.2966434857   -2.2957745475    5.3678516156
C        0.9041968118   -2.2482531274    4.7250450203
N       -1.0434097762   -2.1986249116    6.4623538565
N       -0.5115118534   -1.0057532355    3.2202757205
Cl      -0.1929755049    0.6114767831   -0.4143155642
H        2.2257788405   -0.7066376002    0.4880842007
H        2.6956580429   -1.8957212116    2.6193502536
H       -1.7544152509    0.0576726133    1.9506609968
H        2.1146654656   -3.8848694055    3.8082687318
H        1.3800471783   -4.3250710624    5.4266904053
H        2.3294218397   -2.2152481978    6.4488266322
H        3.0834076098   -1.7612450136    4.8458754421
19   
torsion grid (45,)
C       -0.2643641271   -2.3452034168    5.5743252451
C        1.4042169122   -0.8986128286    1.1957577868
C        1.6473374218   -1.6011106242    2.3733559789
C       -0.7013721643   -0.2235754827    2.1445420315
C        0.2038904064   -0.1966999375    1.0812177321
C        0.6865958909   -1.5745418018    3.3970892035
C        1.8421891583   -3.4882792790    4.8007915760
C        2.2491793854   -2.1827535220    5.4076891407
C        0.8889800056   -2.2942804708    4.6976072090
N       -1.1368154791   -2.4424819986    6.3379597891
N       -0.4623541126   -0.8963309412    3.2735287893
Cl      -0.1699743393    0.7039318223   -0.3707800015
H        2.1253488285   -0.8975056050    0.3841368595
H        2.5754860458   -2.1537792010    2.4808921287
H       -1.6453761969    0.3136038312    2.0805424653
H        2.3115563609   -3.8156311428    3.8792639782
H        1.5342934044   -4.2901699811    5.4627053633
H        2.2289021566   -2.0818738463    6.4873042605
H        2.9921034606   -1.5766225581    4.8991230900
19   
torsion grid (60,)
C        0.9504650830   -3.5875083285    4.7961549740
C        0.9182460301    0.3041775350    1.8456010609
C        1.1368395289   -0.2067713299    3.1240415334
C       -0.0222493465   -1.8309955592    1.2572392497
C        0.3267954548   -0.5267323607    0.8951508220
C        0.7488317156   -1.5238919671    3.4097823188
C        1.6878207917   -1.4479651521    5.8903262856
C        0.1925405518   -1.4800933050    5.9622959867
C        0.9121540801   -2.1382674781    4.7703154555
N        1.0089391404   -4.7449258070    4.9008182919
N        0.1827488407   -2.3129412980    2.4847413002
Cl       0.0279810208    0.0438799905   -0.7308308328
H        1.2074007321    1.3191098637    1.5905018266
H        1.6050261237    0.4218144181    3.8740220304
H       -0.4795452178   -2.5016698622    0.5326742341
H        2.1850165194   -0.5143645696    5.6525522605
H        2.2482037471   -2.0995551937    6.5516006471
H       -0.2835758987   -2.1436502413    6.6759798389
H       -0.3577578470   -0.5747128305    5.7266917965
19   
torsion grid (75,)
C        1.1295126525   -3.5585471425    4.8013161674
C        1.0571115670    0.2471256086    1.8030641766
C        1.3001271402   -0.2639335730    3.0788235139
C       -0.1802064820   -1.7648521316    1.3390659931
C        0.3009344745   -0.5195474963    0.9195574340
C        0.7714920102   -1.5135820899    3.4252932398
C        1.5820850495   -1.3666732492    5.9494966032
C        0.0957752707   -1.5591438838    5.9476674967
C        0.9382702443   -2.1214490022    4.7906455100
N        1.3103872629   -4.7060077364    4.8722058859
N        0.0467274791   -2.2436158746    2.5626114524
Cl      -0.0407564304    0.0527210196   -0.6971695420
H        1.4543688265    1.2110998690    1.5001895516
H        1.9052061567    0.3059058045    3.7751959745
H       -0.7649825721   -2.3860786131    0.6636664153
H        1.9769616359   -0.3769090087    5.7511900888
H        2.1774957497   -1.9595843550    6.6349221764
H       -0.3426331373   -2.2781340662    6.6312641934
H       -0.5334601903   -0.7120658826    5.6940462735
19   
torsion grid (90,)
C        1.3078738832   -3.5141002128    4.7830147139
C        1.1723353106    0.1879714673    1.7597180208
C        1.4241516956   -0.3347166222    3.0300375471
C       -0.3411761973   -1.6538188535    1.4137785224
C        0.2704469095   -0.4861769329    0.9406473002
C        0.7618628016   -1.4997885946    3.4313427790
C        1.4728784136   -1.2945002563    5.9722722137
C        0.0195086639   -1.6640103778    5.9292041733
C        0.9487780570   -2.1101382905    4.7950416690
N        1.6197076063   -4.6354057031    4.8060689671
N       -0.1038019248   -2.1425727030    2.6308748734
Cl      -0.0964690370    0.1040357754   -0.6639016474
H        1.6709674735    1.0879763394    1.4130496499
H        2.1413925847    0.1529050302    3.6813448721
H       -1.0418942189   -2.2009540741    0.7863058038
H        1.7439876748   -0.2616661400    5.7836219662
H        2.1172949435   -1.8121815996    6.6742609960
H       -0.3460025561   -2.4357389133    6.5979875903
H       -0.7008569069   -0.8956881818    5.6677451608
19   
torsion grid (105,)
C        1.4761676136   -3.4468017639    4.7814442420
C        1.2869863020    0.0920228470    1.7038590002
C        1.5328087425   -0.4335050125    2.9738705475
C       -0.4813105950   -1.5324179589    1.4891740221
C        0.2580612513   -0.4708604797    0.9526143340
C        0.7423781897   -1.4894688780    3.4390912718
C        1.3582406168   -1.2245146197    5.9867945369
C       -0.0406926208   -1.7659879703    5.9145840585
C        0.9519868492   -2.0965129994    4.8025830738
N        1.9147726354   -4.5254534348    4.7795801294
N       -0.2453243312   -2.0259639755    2.7054913478
Cl      -0.1144889136    0.1310555726   -0.6461777857
H        1.8809331978    0.9096018562    1.3068730318
H        2.3379968646   -0.0362126041    3.5835562742
H       -1.2850071992   -1.9882439910    0.9144333065
H        1.5065169791   -0.1682472125    5.7875310809
H        2.0453523901   -1.6569005009    6.7059981756
H       -0.3227636314   -2.5745503372    6.5801650760
H       -0.8439645584   -1.0907107683    5.6386894413
19   
torsion grid (120,)
C        1.6542080083   -3.3574140097    4.7954183567
C        1.4021171848   -0.0200515326    1.6513723167
C        1.6383185672   -0.5499906474    2.9200252806
C       -0.5843350409   -1.3852162313    1.5677545683
C        0.2662839310   -0.4499162438    0.9672494516
C        0.7372408464   -1.4809011687    3.4490992057
C        1.2308699464   -1.1716846925    6.0077747841
C       -0.0888455847   -1.8805321335    5.8937350258
C        0.9626096230   -2.0851614352    4.8124683642
N        2.2228444456   -4.3738887271    4.7877493619
N       -0.3531092508   -1.8876524561    2.7832108523
Cl      -0.1040475459    0.1690212868   -0.6255435667
H        2.0782857766    0.7029537131    1.2054535040
H        2.5140304973   -0.2518101975    3.4886999176
H       -1.4750996854   -1.7315378481    1.0477090293
H        1.2594700136   -0.1068032055    5.7986987086
H        1.9450010076   -1.5171438572    6.7476340040
H       -0.2879031224   -2.7169217666    6.5548365089
H       -0.9613864247   -1.3112367648    5.5912203531
19   
torsion grid (135,)
C        1.8246310655   -3.2514569328    4.8334059227
C        1.5007609115   -0.1462685945    1.6017918182
C        1.7358987625   -0.6952709992    2.8607388065
C       -0.6735039305   -1.1879203985    1.6703674063
C        0.2685421008   -0.4023562837    0.9994798513
C        0.7422465023   -1.4795548054    3.4608202232
C        1.0904146201   -1.1375199707    6.0284051049
C       -0.1282677484   -1.9988061021    5.8677035598
C        0.9743933478   -2.0802105314    4.8254217526
N        2.5211581308   -4.1851509239    4.8418780923
N       -0.4401017297   -1.7143262085    2.8772232973
Cl      -0.1069635110    0.2543850016   -0.5769580374
H        2.2466135514    0.4643617965    1.1021892729
H        2.6792935112   -0.5255122967    3.3716731977
H       -1.6412171253   -1.3935029448    1.2176859956
H        1.0066869880   -0.0777706336    5.8078146276
H        1.8141824567   -1.3974541854    6.7937277517
H       -0.2489692731   -2.8508952896    6.5277703576
H       -1.0508843956   -1.5434289055    5.5248540196
19   
torsion grid (150,)
C        1.9992031145   -3.1103312853    4.8947346138
C        1.5646961208   -0.2967845465    1.5271854414
C        1.8076985605   -0.8657191707    2.7742832918
C       -0.7295950541   -0.9961484427    1.7701675447
C        0.2661713710   -0.3675883477    1.0190633975
C        0.7560343345   -1.4940955637    3.4567902561
C        0.9311986037   -1.1069528157    6.0239394328
C       -0.1510507243   -2.1235050210    5.8288024924
C        0.9923081219   -2.0742521105    4.8283335874
N        2.8205669213   -3.9345258510    4.9509373550
N       -0.4878245711   -1.5468093927    2.9657459132
Cl      -0.1212170707    0.3279288704   -0.5379921114
H        2.3542989472    0.1934419418    0.9659331147
H        2.8013629206   -0.8347330137    3.2120513160
H       -1.7488030726   -1.0547631996    1.3942646096
H        0.7189897364   -0.0713412950    5.7768162123
H        1.6555686113   -1.2581316450    6.8175342542
H       -0.1817816303   -2.9775367864    6.4967016089
H       -1.1088291565   -1.7997791556    5.4375464349
19   
torsion grid (165,)
C        2.1344868165   -2.9523308396    4.9609829429
C        1.5920872260   -0.4336104817    1.4596820405
C        1.8450044210   -1.0211533921    2.6960582734
C       -0.7527100135   -0.7917752121    1.8822053209
C        0.2628844750   -0.3201476592    1.0479139197
C        0.7685690370   -1.4882512641    3.4652251984
C        0.7754909152   -1.0967243914    6.0280440006
C       -0.1587710924   -2.2402278118    5.7987625716
C        1.0090369986   -2.0540880692    4.8393209157
N        3.0500209501   -3.6652427831    5.0630442791
N       -0.5031371992   -1.3621588748    3.0662808628
Cl      -0.1366131456    0.4092133627   -0.4907491758
H        2.4000349619   -0.0671582820    0.8337521118
H        2.8638571537   -1.1297549851    3.0560500824
H       -1.7952688319   -0.7058304066    1.5834244005
H        0.4457883923   -0.0985681663    5.7576618399
H        1.4841276895   -1.1512486136    6.8478973529
H       -0.1035220391   -3.0917904024    6.4683120781
H       -1.1317685966   -2.0364002195    5.3672672526
19   
torsion grid (180,)
C        2.2450237967   -2.8093534769    5.0239095068
C        1.5964699850   -0.5669871858    1.4044076250
C        1.8627809561   -1.1559760079    2.6382103771
C       -0.7387459457   -0.6213543497    1.9926509467
C        0.2668071292   -0.2974121655    1.0786419937
C        0.7937839230   -1.4663150091    3.4916696415
C        0.6534862064   -1.1270922879    6.0579262552
C       -0.1401452657   -2.3580685757    5.7730298164
C        1.0404842186   -2.0286027769    4.8633100366
N        3.2224249840   -3.4290642134    5.1556297763
N       -0.4786411715   -1.1922428420    3.1726209513
Cl      -0.1474851321    0.4418796953   -0.4515445616
H        2.3978543188   -0.3190369957    0.7150552033
H        2.8837537982   -1.3828394015    2.9293357726
H       -1.7812550917   -0.4134596668    1.7609787558
H        0.2277086268   -0.1677668489    5.7823541106
H        1.3325274328   -1.1197082122    6.9040469173
H       -0.0177209796   -3.2141202389    6.4278184970
H       -1.1112554983   -2.2441187369    5.3056649763
