25   
torsion grid (-165,)
C       -1.4464333241    0.6120686405    0.4039426402
C        5.4001523433   -0.6998658974    2.6108581163
C       -1.3084515834   -0.0879591163   -0.8008974053
C       -0.3265688408    0.8562505852    1.2038067741
C        5.3973530540    0.3635609685    1.7013718909
C        4.5754161766   -1.8123559892    2.4027690578
C       -0.0544685913   -0.5463485563   -1.2076331169
C        0.9367325968    0.4070538053    0.8042209346
C        4.5618160471    0.3253613749    0.5811341314
C        3.7379952883   -1.8636354042    1.2861553261
C        1.0561449270   -0.2967636276   -0.3951078203
C        3.7390083134   -0.7869797378    0.3959834392
O        2.4990839775   -2.2430737898   -1.4559153859
O        3.1289529276    0.1719535417   -1.9926411827
S        2.6551524132   -0.8412853796   -1.0360585825
H       -2.4252146702    0.9643013589    0.7182907948
H        6.0519919321   -0.6660193261    3.4798250468
H       -2.1781123817   -0.2792990281   -1.4234487395
H       -0.4313203217    1.3977642821    2.1399864125
H        6.0477716644    1.2192179173    1.8601007332
H        4.5902600578   -2.6414233443    3.1047509073
H        0.0619668895   -1.1030183172   -2.1326468357
H        1.8051915172    0.6000419665    1.4252760783
H        4.5481504478    1.1304250453   -0.1470012804
H        3.1030987579   -2.7236443276    1.0958137018
25   
torsion grid (-150,)
C       -1.4352321665    0.5520746718    0.4208215199
C        5.3741046269   -0.7971069936    2.6303502265
C       -1.2994295829   -0.3143769736   -0.6693861420
C       -0.3005780322    1.0249901320    1.0891994418
C        5.4323299955    0.3020266390    1.7668457172
C        4.5129836165   -1.8675719905    2.3575909874
C       -0.0301176817   -0.7143518536   -1.0948863346
C        0.9744204602    0.6388575806    0.6674868244
C        4.6221674804    0.3416148783    0.6277520454
C        3.7014170725   -1.8403960842    1.2216338071
C        1.0922728395   -0.2353604441   -0.4152641961
C        3.7632073915   -0.7293533555    0.3769261486
O        2.5905923648   -2.0437794396   -1.6251727380
O        3.1838439717    0.4245284222   -1.9264251801
S        2.7104910777   -0.6823826020   -1.0797216874
H       -2.4245425198    0.8569168034    0.7514211194
H        6.0058070649   -0.8240927348    3.5142944649
H       -2.1808024858   -0.6821623743   -1.1875073434
H       -0.4060632491    1.6960753245    1.9371942062
H        6.1100673265    1.1251567157    1.9756365017
H        4.4798452166   -2.7246869760    3.0244014969
H        0.0941071395   -1.4002423185   -1.9272802405
H        1.8564691012    1.0056527109    1.1832032806
H        4.6549933852    1.1755338676   -0.0665613542
H        3.0398958056   -2.6678979109    0.9833485582
25   
torsion grid (-135,)
C       -1.3920299327    0.4992048253    0.4356671474
C        5.3487442536   -0.9021194594    2.6603914528
C       -1.2288578698   -0.5151712184   -0.5129194529
C       -0.2765295316    1.1781327045    0.9417004225
C        5.4416385348    0.2378237270    1.8550403121
C        4.4841157031   -1.9475381179    2.3117999974
C        0.0509102133   -0.8605497690   -0.9586097670
C        1.0050113004    0.8476074756    0.4975539459
C        4.6631747401    0.3439619909    0.6982123615
C        3.7038828954   -1.8540747965    1.1577752360
C        1.1516244717   -0.1767680701   -0.4413587922
C        3.8005026371   -0.7032007034    0.3716084626
O        2.6844492775   -1.8938564554   -1.7368785546
O        3.2684243391    0.5965185882   -1.8625533585
S        2.7831283653   -0.5683137816   -1.1056695268
H       -2.3878786990    0.7617536643    0.7826381351
H        5.9558964409   -0.9804456508    3.5583591412
H       -2.0954698559   -1.0395409919   -0.9060824887
H       -0.4049905592    1.9665277003    1.6782071956
H        6.1223447458    1.0413081210    2.1225834938
H        4.4239370568   -2.8362651393    2.9338666740
H        0.2042065329   -1.6524061182   -1.6852396591
H        1.8733469331    1.3743993567    0.8818755418
H        4.7256741142    1.2099825579    0.0464298762
H        3.0400799540   -2.6610016417    0.8619123580
25   
torsion grid (-120,)
C       -1.3221819593    0.4807108386    0.4446045324
C        5.3272547746   -0.9904877832    2.7048712157
C       -1.1032055930   -0.6520710403   -0.3452481349
C       -0.2583156488    1.3326585833    0.7685515542
C        5.4338587937    0.1981213072    1.9751660631
C        4.4853194860   -2.0191728369    2.2636479616
C        0.1829967451   -0.9455583996   -0.8103585012
C        1.0278206586    1.0540275038    0.3038724885
C        4.6918586744    0.3698917059    0.8024747715
C        3.7414299606   -1.8608785338    1.0928493093
C        1.2314990568   -0.0904730150   -0.4717545672
C        3.8513516775   -0.6622559818    0.3835488384
O        2.8020908856   -1.7333077568   -1.8172789831
O        3.3805898150    0.7667018575   -1.7847957575
S        2.8784256984   -0.4430102485   -1.1145287735
H       -2.3224100005    0.7034393252    0.8066000253
H        5.9061011247   -1.1196286766    3.6155629649
H       -1.9314292597   -1.3069006814   -0.6017633324
H       -0.4325154526    2.2160970870    1.3765576218
H        6.0978760572    0.9886975132    2.3137181431
H        4.4146530501   -2.9455512137    2.8269139958
H        0.3813451434   -1.8182448267   -1.4248031685
H        1.8562419201    1.7168958812    0.5354654660
H        4.7685629164    1.2748502487    0.2076591919
H        3.0968466349   -2.6539850482    0.7257464413
25   
torsion grid (-105,)
C       -1.3105441089    0.5098893948    0.4895071238
C        5.2730784478   -1.1097337612    2.6849100692
C       -1.0408834986   -0.7268707100   -0.1054271978
C       -0.3089205110    1.4844585538    0.5821797485
C        5.3310288347    0.1392138874    2.0570260523
C        4.4969390005   -2.1402433756    2.1405566433
C        0.2364599844   -1.0020537026   -0.6033646438
C        0.9690705421    1.2232936296    0.0848682240
C        4.6051987357    0.3694712535    0.8847576261
C        3.7691707953   -1.9228894350    0.9686837982
C        1.2247855442   -0.0233493729   -0.4920043216
C        3.8288981751   -0.6660464782    0.3620510936
O        2.7916941303   -1.6354717383   -1.8819639860
O        3.3901670546    0.8613842127   -1.7465087967
S        2.8714326639   -0.3713880074   -1.1335436718
H       -2.3046545228    0.7189248391    0.8757055684
H        5.8396141622   -1.2836953400    3.5958763026
H       -1.8242430292   -1.4753076299   -0.1875987982
H       -0.5259262160    2.4487874352    1.0332544883
H        5.9457630889    0.9317419054    2.4747938651
H        4.4648036666   -3.1129055652    2.6236782968
H        0.4688594016   -1.9482788654   -1.0819844544
H        1.7502923079    1.9761129623    0.1279496837
H        4.6499152155    1.3228865376    0.3675905206
H        3.1771402701   -2.7148969383    0.5202694968
25   
torsion grid (-90,)
C       -1.1463562692    0.7183822631    0.2432581865
C        5.9177976450    0.6572798798    0.9291291617
C       -0.7383217874    0.2689533490    1.5043760114
C       -0.4987405888    0.2652874422   -0.9118389260
C        5.5013624327    0.2088953076   -0.3296022804
C        5.2634097240    0.2224182036    2.0874280556
C        0.3262119637   -0.6288903479    1.6175102096
C        0.5669928653   -0.6326117337   -0.8114169932
C        4.4208231030   -0.6703328347   -0.4369078933
C        4.1816939857   -0.6567163537    1.9923161727
C        0.9686928101   -1.0610356251    0.4554745943
C        3.7715593107   -1.0845191180    0.7279249104
O        2.2293567756   -2.9032473323    1.8780580126
O        2.4786171070   -2.9133794724   -0.6832993169
S        2.3603352528   -2.1949728778    0.5951964548
H       -1.9755811127    1.4159275649    0.1599944543
H        6.7594515594    1.3402616162    1.0081568674
H       -1.2527709064    0.6111088030    2.3981359790
H       -0.8276703802    0.6046425062   -1.8901917074
H        6.0212997332    0.5370069751   -1.2254626582
H        5.5991755589    0.5611961205    3.0636641546
H        0.6446714390   -1.0072264468    2.5838884568
H        1.0686836540   -1.0137157311   -1.6954520014
H        4.0948319120   -1.0480830869   -1.4009941364
H        3.6737027813   -1.0239128860    2.8786361469
25   
torsion grid (-75,)
C       -1.1363553067    0.7242480178    0.1820410987
C        5.8978032186    0.6666128089    1.0672610246
C       -0.5627105357    0.4920733740    1.4384704612
C       -0.6545196332    0.0568682248   -0.9487851846
C        5.4019893396    0.3855184519   -0.2117014549
C        5.3285635621    0.0643165475    2.1945207594
C        0.4983198453   -0.4060589151    1.5671286338
C        0.4106940947   -0.8415545138   -0.8324439238
C        4.3289655858   -0.4944422093   -0.3682693333
C        4.2527277182   -0.8165213837    2.0508960317
C        0.9721069609   -1.0588958653    0.4263327577
C        3.7650856583   -1.0769106875    0.7692329915
O        2.2170519449   -2.9281738067    1.8420983415
O        2.5066883546   -2.8851378827   -0.7123741173
S        2.3645290933   -2.1914498223    0.5771619738
H       -1.9632906121    1.4229341040    0.0865601623
H        6.7343721739    1.3504182732    1.1840850591
H       -0.9455166104    1.0050315097    2.3164480466
H       -1.1083663091    0.2320544889   -1.9203356628
H        5.8552737753    0.8449543821   -1.0857427980
H        5.7254338864    0.2738111747    3.1840345654
H        0.9411605983   -0.6116656773    2.5368977904
H        0.7969880293   -1.3797155292   -1.6924223242
H        3.9430308302   -0.7403386564   -1.3528794446
H        3.8074112890   -1.3127690239    2.9075607245
25   
torsion grid (-60,)
C       -1.1750551792    0.7452789437    0.1237303210
C        5.8629387855    0.6434333283    1.1751120393
C       -0.4224489780    0.7010377286    1.3045706613
C       -0.8593025089   -0.0990347530   -0.9450371283
C        5.3288535618    0.5050843440   -0.1122714806
C        5.3315192867   -0.0864219835    2.2435482712
C        0.6459136719   -0.1891859436    1.4212239832
C        0.2142183382   -0.9902219775   -0.8432872464
C        4.2561628827   -0.3602568495   -0.3350554251
C        4.2553636451   -0.9542717416    2.0338998969
C        0.9468103640   -1.0257552217    0.3429312542
C        3.7306736400   -1.0719978062    0.7462219798
O        2.1627467530   -2.9709974778    1.6936503752
O        2.4906304616   -2.8095511571   -0.8461750775
S        2.3330113886   -2.1716512285    0.4702040092
H       -2.0066911711    1.4397047829    0.0384500955
H        6.6994437369    1.3165719241    1.3431546016
H       -0.6697648053    1.3581215852    2.1337429787
H       -1.4449861567   -0.0638009913   -1.8595176646
H        5.7523024042    1.0647773578   -0.9416550826
H        5.7569022507    0.0142294852    3.2382647307
H        1.2294495693   -0.2373009529    2.3358297864
H        0.4860162211   -1.6508995877   -1.6606683631
H        3.8397752698   -0.4936940533   -1.3290840547
H        3.8344134293   -1.5452811346    2.8414788048
25   
torsion grid (-45,)
C       -1.2033293398    0.6893130613    0.1202779054
C        5.8873512013    0.6336874452    1.3019380311
C       -0.2818707076    0.8309574861    1.1650226990
C       -1.0205812868   -0.3003165816   -0.8508785527
C        5.3694632983    0.5852236552    0.0013613243
C        5.3474709686   -0.1727332526    2.3093748576
C        0.8211116097   -0.0213722504    1.2464139059
C        0.0851053324   -1.1536884375   -0.7846293654
C        4.3042444903   -0.2670259269   -0.2955593050
C        4.2786912424   -1.0284175176    2.0246357185
C        0.9854746123   -1.0085219097    0.2714991095
C        3.7695350015   -1.0563179944    0.7256722295
O        2.2045095243   -3.0288918195    1.5155337235
O        2.5689563301   -2.6992782994   -0.9970842682
S        2.3863783970   -2.1445594931    0.3535265567
H       -2.0601238980    1.3552122853    0.0610455232
H        6.7181810499    1.2969165098    1.5276720380
H       -0.4207610508    1.6051091534    1.9146374349
H       -1.7330644993   -0.4048940056   -1.6645063002
H        5.7997852372    1.2045274235   -0.7807508140
H        5.7598530010   -0.1408314975    3.3140842731
H        1.5395678252    0.0852873112    2.0535721073
H        0.2597413369   -1.9147574259   -1.5387909825
H        3.8996487660   -0.3310101617   -1.3012825128
H        3.8489658979   -1.6759850058    2.7827268785
25   
torsion grid (-30,)
C       -1.2910896019    0.7083149154    0.1687918666
C        5.8568109610    0.5827987218    1.4109582046
C       -0.2292728953    0.9908356907    1.0344152650
C       -1.2278424528   -0.4033454002   -0.6789552694
C        5.3906483946    0.5921395463    0.0902917771
C        5.2611707064   -0.2476900879    2.3664507262
C        0.8955381195    0.1614262279    1.0641657613
C       -0.1059568989   -1.2354769612   -0.6651686631
C        4.3207038277   -0.2253616937   -0.2797164696
C        4.1878625092   -1.0693867453    2.0089020364
C        0.9381374194   -0.9482465563    0.2176945244
C        3.7300641813   -1.0383737381    0.6906949758
O        2.1465560841   -3.0620523231    1.3059524964
O        2.5365193493   -2.5329451171   -1.1637958968
S        2.3439100313   -2.0837719174    0.2242765629
H       -2.1625047390    1.3573490553    0.1493795669
H        6.6914374603    1.2190916239    1.6931951188
H       -0.2724848449    1.8593245255    1.6858772700
H       -2.0479718408   -0.6185862304   -1.3583414478
H        5.8647421897    1.2292413645   -0.6511266971
H        5.6338740473   -0.2608937314    3.3869183035
H        1.7212564126    0.3832876418    1.7327579840
H       -0.0296432797   -2.0860188250   -1.3355767839
H        3.9543934291   -0.2459823749   -1.3017074104
H        3.7154422477   -1.7342433315    2.7254088637
25   
torsion grid (-15,)
C       -1.3128650060    0.6543642456    0.2113539178
C        5.8634802449    0.5480466119    1.5336615302
C       -0.1582109313    1.0679361330    0.8811779804
C       -1.3220449236   -0.5574371102   -0.4904399627
C        5.4680721907    0.6001923163    0.1913278148
C        5.2107668205   -0.3023044147    2.4332132578
C        0.9926694909    0.2723183552    0.8596014676
C       -0.1786663822   -1.3568633076   -0.5234741146
C        4.4105273782   -0.1946245042   -0.2568345824
C        4.1498855775   -1.1011100142    1.9966028309
C        0.9660279107   -0.9356454446    0.1612385922
C        3.7618576086   -1.0279720933    0.6575530358
O        2.1876720579   -3.1132294269    1.0799980079
O        2.6106688772   -2.3749745170   -1.3267526216
S        2.3923820447   -2.0432632220    0.0903220249
H       -2.2035184759    1.2766268342    0.2309128737
H        6.6884359566    1.1665050196    1.8772727560
H       -0.1471916731    2.0112375230    1.4203592124
H       -2.2169778072   -0.8769533047   -1.0172511535
H        5.9866249361    1.2525321099   -0.5057662206
H        5.5295727745   -0.3483112243    3.4708340720
H        1.8884244301    0.5963107962    1.3788473981
H       -0.1679211373   -2.2887664957   -1.0806658877
H        4.0967005584   -0.1835839784   -1.2961749473
H        3.6342504665   -1.7796349091    2.6690810453
25   
torsion grid (0,)
C       -1.3547361105    0.6483396901    0.2800638532
C        5.8379098782    0.5092289710    1.6055513391
C       -0.1357292449    1.1603526995    0.7308819844
C       -1.4145834760   -0.6365293914   -0.2746758238
C        5.5312530021    0.5933324070    0.2422704455
C        5.1054219520   -0.3368379479    2.4465732784
C        1.0314150736    0.3938675771    0.6311540199
C       -0.2583937871   -1.4098995486   -0.3793968452
C        4.4824906105   -0.1634171407   -0.2869230112
C        4.0543965923   -1.0986250774    1.9292802711
C        0.9558187753   -0.8840947258    0.0762511764
C        3.7548884505   -0.9927178788    0.5693355593
O        2.1890307681   -3.1251520329    0.7730286791
O        2.6346205808   -2.1469107598   -1.5410909666
S        2.3974206796   -1.9593607252   -0.1007836943
H       -2.2578077767    1.2474365302    0.3598140498
H        6.6556067179    1.0984460197    2.0121546823
H       -0.0866831536    2.1567355274    1.1615936888
H       -2.3619521537   -1.0361903053   -0.6257519514
H        6.1111066993    1.2416545231   -0.4087478550
H        5.3557346422   -0.4083474425    3.5013761591
H        1.9762429282    0.7945695995    0.9821776689
H       -0.2954962588   -2.4069731379   -0.8080394191
H        4.2339168866   -0.1277394311   -1.3431262800
H        3.4806074035   -1.7735488367    2.5568629004
25   
torsion grid (15,)
C       -1.3574693690    0.6553913363    0.3657364160
C        5.8143025208    0.4804696925    1.7004573563
C       -0.1111295956    1.2484564082    0.5844410021
C       -1.4379487983   -0.6865887089   -0.0263265768
C        5.5984588254    0.5943401085    0.3224976689
C        5.0053899275   -0.3568430638    2.4785831179
C        1.0623046821    0.5070024368    0.4075999638
C       -0.2747646621   -1.4376420290   -0.2007671668
C        4.5641589528   -0.1231663028   -0.2854833793
C        3.9700155606   -1.0799751104    1.8818257279
C        0.9659950806   -0.8273833280    0.0103669149
C        3.7605635639   -0.9444569966    0.5073971659
O        2.2135431931   -3.1088625613    0.4890985831
O        2.6845094979   -1.9042621696   -1.7117718689
S        2.4222462400   -1.8619251563   -0.2641257765
H       -2.2658934457    1.2352170717    0.5051086121
H        6.6202176056    1.0393463023    2.1687294294
H       -0.0468122861    2.2875709309    0.8955314466
H       -2.4067213289   -1.1505036003   -0.1899610824
H        6.2366333758    1.2356002119   -0.2791060583
H        5.1851914742   -0.4518104814    3.5458385386
H        2.0288674269    0.9686355796    0.5797001776
H       -0.3258899012   -2.4842969300   -0.4852534492
H        4.3825263312   -0.0642133420   -1.3541374682
H        3.3403881111   -1.7478486152    2.4617717030
25   
torsion grid (30,)
C       -1.3342813105    0.6215346577    0.4229748478
C        5.7867943759    0.4340631319    1.7842640296
C       -0.1009717268    1.2809794914    0.3955325114
C       -1.3969958745   -0.7606509860    0.2130011406
C        5.6455948515    0.5885648431    0.4009475818
C        4.9243508987   -0.4098803842    2.4953314497
C        1.0738715698    0.5645333554    0.1497889542
C       -0.2286990873   -1.4884954986   -0.0251228892
C        4.6334986197   -0.0944291227   -0.2805114207
C        3.9113240346   -1.0988731769    1.8252792693
C        0.9932929886   -0.8125712716   -0.0664939000
C        3.7767818347   -0.9228082828    0.4459630838
O        2.2681445973   -3.1081119182    0.2184502636
O        2.7542733903   -1.7034971566   -1.8607070698
S        2.4665884221   -1.7973736330   -0.4203818001
H       -2.2446268720    1.1829438144    0.6154389172
H        6.5753595709    0.9663335106    2.3095937042
H       -0.0502397140    2.3524475860    0.5686576938
H       -2.3537855947   -1.2746211891    0.2435610187
H        6.3244600126    1.2348851824   -0.1484678210
H        5.0458500868   -0.5365493691    3.5675158173
H        2.0317093731    1.0747523641    0.1324801074
H       -0.2564821821   -2.5650166851   -0.1628648755
H        4.5085393481   -0.0043275954   -1.3551458101
H        3.2424836859   -1.7709303779    2.3544773510
25   
torsion grid (45,)
C       -1.3550938872    0.6825694651    0.5097880785
C        5.6936713314    0.3465001047    1.8815657643
C       -0.1650929073    1.3605969863    0.2185518709
C       -1.3907351683   -0.7154566222    0.4973844716
C        5.6041612337    0.5605118150    0.5021099077
C        4.7888446543   -0.5064327722    2.5264412593
C        0.9914173570    0.6431663531   -0.0935648122
C       -0.2366741319   -1.4447976108    0.1951696043
C        4.6023623247   -0.0713821745   -0.2413476398
C        3.7861670730   -1.1447936618    1.7940668046
C        0.9367499433   -0.7528354355   -0.1071965759
C        3.7039078408   -0.9101636198    0.4193419140
O        2.1966463478   -3.0712248745    0.0091600681
O        2.7109501548   -1.5069029543   -1.9512269487
S        2.4044056442   -1.7169107881   -0.5274030596
H       -2.2525150785    1.2454356795    0.7523622188
H        6.4739488440    0.8392908101    2.4555292217
H       -0.1368696006    2.4466066801    0.2360466018
H       -2.3133781203   -1.2401164536    0.7298060507
H        6.3151888438    1.2135024436    0.0035459689
H        4.8694802120   -0.6792456448    3.5960437290
H        1.9173048797    1.1639150887   -0.3186090789
H       -0.2342885692   -2.5303597954    0.2007546358
H        4.5175652380    0.0647549602   -1.3151243811
H        3.0856731798   -1.8223113842    2.2731356222
25   
torsion grid (60,)
C       -1.3034133401    0.6789001767    0.5393613586
C        5.6555888553    0.2829431435    1.9859455299
C       -0.2087143395    1.3514778500   -0.0191498967
C       -1.2539429493   -0.7038484745    0.7404164348
C        5.5896898246    0.5851786963    0.6217711523
C        4.7539873281   -0.6257680807    2.5543178650
C        0.9376070780    0.6423826629   -0.3806367656
C       -0.1072736506   -1.4240842919    0.3891925927
C        4.6149815872   -0.0136083741   -0.1823585098
C        3.7781248441   -1.2317811188    1.7607968566
C        0.9698228733   -0.7392248177   -0.1729882737
C        3.7189064904   -0.9091572888    0.4027486153
O        2.2446298248   -3.0527695018   -0.1646026829
O        2.7797626818   -1.3653717946   -2.0219090217
S        2.4484007601   -1.6689924158   -0.6209169174
H       -2.1942828201    1.2352997080    0.8184004284
H        6.4149702976    0.7503449741    2.6072059733
H       -0.2497892599    2.4260306191   -0.1744521419
H       -2.1048410128   -1.2231914455    1.1726234088
H        6.2989202165    1.2809187207    0.1818741010
H        4.8162368459   -0.8668835598    3.6118795158
H        1.7879344610    1.1530910652   -0.8226740318
H       -0.0389809555   -2.4966987430    0.5418972658
H        4.5520523942    0.1896626740   -1.2469205560
H        3.0814724177   -1.9515466299    2.1802093099
25   
torsion grid (75,)
C       -1.2765343393    0.7393152329    0.5166570421
C        5.6224093278    0.2031315147    2.0585715249
C       -0.3022552806    1.3540843441   -0.2798549499
C       -1.1194998060   -0.5892619071    0.9247617140
C        5.5208993007    0.6495923743    0.7364907972
C        4.7717235437   -0.8026935016    2.5331417911
C        0.8354093746    0.6442859545   -0.6683289729
C        0.0175820663   -1.3095069321    0.5458772182
C        4.5607831461    0.0988535786   -0.1171659941
C        3.8098888014   -1.3623198338    1.6893496515
C        0.9789155401   -0.6795127893   -0.2453861932
C        3.7146037505   -0.8955340078    0.3763072652
O        2.2486087453   -2.9964119225   -0.3221790195
O        2.8154884778   -1.2139435922   -2.0863392629
S        2.4600062726   -1.5931289094   -0.7099988948
H       -2.1610131631    1.2960538768    0.8147519950
H        6.3706841024    0.6338100661    2.7186385175
H       -0.4320837127    2.3832862611   -0.6028875693
H       -1.8817739585   -1.0665291672    1.5344557829
H        6.1923474558    1.4200080610    0.3674977241
H        4.8627230371   -1.1559619521    3.5565707075
H        1.5900608669    1.1006991187   -1.3016614408
H        0.1593526999   -2.3446298764    0.8405853257
H        4.4759178062    0.4126292852   -1.1529247766
H        3.1544286827   -2.1567879847    2.0329516166
25   
torsion grid (90,)
C       -1.3373543854    0.8432414196    0.5235208886
C        5.5338391811    0.0477952381    2.1169231974
C       -0.4979349270    1.3246545451   -0.4876709106
C       -1.0691028153   -0.3830887929    1.1425079443
C        5.3408000654    0.6507515793    0.8686839159
C        4.7668901078   -1.0609042040    2.4930863730
C        0.6211950900    0.5853470805   -0.8789281676
C        0.0471143405   -1.1308689562    0.7592360085
C        4.3720737213    0.1532735968   -0.0066444549
C        3.7953441277   -1.5669545028    1.6258322198
C        0.8809984094   -0.6302568634   -0.2427642948
C        3.6073976441   -0.9459822017    0.3893162720
O        2.0921384578   -2.9809127770   -0.3663711111
O        2.7011640118   -1.1676123599   -2.0880385039
S        2.3374203978   -1.5744257706   -0.7217249273
H       -2.2073956092    1.4210402370    0.8239501162
H        6.2892046552    0.4373385060    2.7942522788
H       -0.7180387054    2.2700241977   -0.9759227837
H       -1.7315417390   -0.7602291048    1.9167813541
H        5.9482193338    1.5020938341    0.5740527296
H        4.9297696098   -1.5354398197    3.4568485321
H        1.2735043712    0.9286675234   -1.6758290944
H        0.2619269658   -2.0947448831    1.2100591563
H        4.2206066562    0.5917401127   -0.9880856626
H        3.2046314125   -2.4391359943    1.8881014839
25   
torsion grid (105,)
C       -1.3059148031    0.8491633042    0.4636037035
C        5.5308569712   -0.0621155619    2.2711060000
C       -0.5941240190    1.1686139336   -0.6972081313
C       -0.8978131582   -0.2192658103    1.2720299247
C        5.2596623291    0.6657835935    1.1060977000
C        4.8587531708   -1.2621069048    2.5275333382
C        0.5372664519    0.4273030888   -1.0518889823
C        0.2276000445   -0.9691693977    0.9256717877
C        4.3088018279    0.1994654649    0.1957397081
C        3.9036006720   -1.7368855451    1.6239826608
C        0.9360926364   -0.6264791520   -0.2287973185
C        3.6377614726   -0.9938648334    0.4727237235
O        2.1267533468   -2.9954636528   -0.3551244973
O        2.7870634752   -1.1659742072   -2.0366351557
S        2.3912291052   -1.5858638884   -0.6833525256
H       -2.1842978335    1.4281493201    0.7362316697
H        6.2730641152    0.3031901779    2.9759149523
H       -0.9210844616    1.9895097078   -1.3295114658
H       -1.4608495189   -0.4727560192    2.1660213968
H        5.7931172022    1.5904445680    0.9037393397
H        5.0820673773   -1.8316942360    3.4254563694
H        1.0995212390    0.6454407780   -1.9544742182
H        0.5431014456   -1.8147401813    1.5292603687
H        4.0988056254    0.7394651806   -0.7224691516
H        3.3840329541   -2.6754418506    1.7898985604
25   
torsion grid (120,)
C       -1.3294726877    0.8832940648    0.4131767084
C        5.5098879220   -0.1477635761    2.3263173603
C       -0.7539372512    1.0568211308   -0.8491380677
C       -0.7631200105   -0.0100547268    1.3318211550
C        5.1961957355    0.6824943907    1.2428074944
C        4.8889813501   -1.3934250343    2.4658324554
C        0.3972836700    0.3435391783   -1.1996766253
C        0.3809194309   -0.7324692779    0.9901304563
C        4.2549305506    0.2721923951    0.2968027285
C        3.9426063613   -1.8140849858    1.5263191488
C        0.9519311643   -0.5360612772   -0.2702344765
C        3.6359244869   -0.9698149727    0.4584048285
O        2.1234032952   -2.9149619928   -0.4860439235
O        2.8188506263   -1.0233970546   -2.0748355060
S        2.4038819281   -1.4938397545   -0.7440033567
H       -2.2222453536    1.4413777396    0.6826088200
H        6.2449584817    0.1750068889    3.0588374552
H       -1.1997990399    1.7444650138   -1.5625243264
H       -1.2165352958   -0.1479693255    2.3095134703
H        5.6895717268    1.6440916065    1.1316216631
H        5.1443298917   -2.0401170729    3.3007824884
H        0.8649299804    0.4591589377   -2.1724975204
H        0.8188806038   -1.4390964567    1.6888272583
H        4.0115701589    0.8945880030   -0.5591476068
H        3.4582954878   -2.7828594056    1.6008017726
25   
torsion grid (135,)
C       -1.3515764357    0.8569379281    0.3900357625
C        5.5091024061   -0.2567373566    2.4028635212
C       -0.8997231280    0.8782050152   -0.9331407853
C       -0.6303949469    0.1646828268    1.3708441378
C        5.2144956730    0.6375345476    1.3658484880
C        4.8818610167   -1.5057428444    2.4601828431
C        0.2785240640    0.2114705855   -1.2836699871
C        0.5425300823   -0.5116450936    1.0307501995
C        4.2856436202    0.2878615228    0.3838778596
C        3.9479831245   -1.8663920893    1.4838676163
C        0.9868837318   -0.4698649071   -0.2933244044
C        3.6598950821   -0.9587317212    0.4636755605
O        2.1582927213   -2.8400141164   -0.6191757868
O        2.8844241443   -0.8700656453   -2.0858281465
S        2.4476460000   -1.4071273320   -0.7873647406
H       -2.2653683591    1.3799678779    0.6592109321
H        6.2346405103    0.0190422673    3.1635552380
H       -1.4615443021    1.4139210519   -1.6933454633
H       -0.9831169426    0.1484433942    2.3983773526
H        5.7131055762    1.6016827574    1.3186597452
H        5.1223159451   -2.2013002603    3.2594994003
H        0.6560665770    0.2234664243   -2.3014440153
H        1.1028216009   -1.0550536155    1.7857118849
H        4.0560814713    0.9604461971   -0.4372395921
H        3.4576665395   -2.8350086450    1.4941245629
25   
torsion grid (150,)
C       -1.3975509443    0.8232244449    0.3889216646
C        5.4864736932   -0.3529564530    2.4590365712
C       -1.0625273334    0.6778875432   -0.9617819198
C       -0.5330162328    0.3522590397    1.3831725063
C        5.2213294569    0.5999669398    1.4673363001
C        4.8433500975   -1.5951787620    2.4387688141
C        0.1391511958    0.0640213036   -1.3240746357
C        0.6675374085   -0.2711648071    1.0328735760
C        4.3054209623    0.3157703660    0.4524327832
C        3.9222016002   -1.8899359402    1.4288280639
C        0.9924859034   -0.3981214898   -0.3194197678
C        3.6628829383   -0.9247728003    0.4546670858
O        2.1882471572   -2.7337260689   -0.7807284351
O        2.9282718686   -0.6704042419   -2.0960722606
S        2.4725691830   -1.2910752348   -0.8420041451
H       -2.3307388053    1.3056329581    0.6671230204
H        6.2021510405   -0.1281673396    3.2454097025
H       -1.7337239388    1.0443219704   -1.7336446045
H       -0.7925141323    0.4673907391    2.4319679609
H        5.7326972988    1.5584655055    1.4806157959
H        5.0609788399   -2.3356614234    3.2034877653
H        0.4249442337   -0.0414321255   -2.3661697226
H        1.3387361994   -0.6393850803    1.8025304438
H        4.0981448312    1.0336328448   -0.3355159045
H        3.4175545259   -2.8498973316    1.3797872591
25   
torsion grid (165,)
C       -1.4070486910    0.7412987002    0.3570931529
C        5.4611785198   -0.4961444401    2.5374243905
C       -1.1583449376    0.4103669415   -0.9805694200
C       -0.4321476479    0.5044647622    1.3302380420
C        5.2706836405    0.4999834197    1.5717179285
C        4.7735172110   -1.7115024595    2.4475673219
C        0.0635151086   -0.1551003588   -1.3484040395
C        0.7943536105   -0.0672654933    0.9750404125
C        4.3846967622    0.2871111443    0.5132294767
C        3.8821366146   -1.9352707370    1.3940619149
C        1.0301725497   -0.3833749349   -0.3637931873
C        3.6969109116   -0.9270272116    0.4465793106
O        2.2804448718   -2.6478147837   -0.9781002791
O        3.0307902322   -0.4764256038   -2.0912855194
S        2.5466573581   -1.2020892501   -0.9060922044
H       -2.3584760998    1.1843938234    0.6387638104
H        6.1537284205   -0.3269287660    3.3577059328
H       -1.9149527240    0.5946232713   -1.7382610407
H       -0.6225421899    0.7620882895    2.3685164965
H        5.8165527781    1.4369388636    1.6388849049
H        4.9338483543   -2.4860368700    3.1924130388
H        0.2733185372   -0.4022158291   -2.3847464039
H        1.5488419893   -0.2529053252    1.7323195818
H        4.2341336693    1.0381373282   -0.2563280804
H        3.3444266964   -2.8728295541    1.2923771748
25   
torsion grid (180,)
C       -1.4358086786    0.6854960638    0.3996379000
C        5.4285980473   -0.5922097892    2.5888230290
C       -1.2645681821    0.1694753995   -0.8912543453
C       -0.3679269398    0.6882168072    1.3002762612
C        5.3338489576    0.4393334987    1.6472232825
C        4.6702158397   -1.7593170019    2.4393633236
C       -0.0274339436   -0.3432992229   -1.2818132471
C        0.8781628186    0.1763564972    0.9197281592
C        4.4725440422    0.3129708704    0.5541262283
C        3.8054182595   -1.8974562468    1.3504444040
C        1.0335863777   -0.3343788932   -0.3694388573
C        3.7145206962   -0.8530989909    0.4277645366
O        2.3830003678   -2.4524390067   -1.2194923963
O        3.0770791885   -0.1407625245   -2.0470793358
S        2.5957762112   -1.0181214118   -0.9678501854
H       -2.4007337047    1.0842960434    0.7007822365
H        6.1012067727   -0.4898864698    3.4363369143
H       -2.0939103177    0.1663607683   -1.5931808958
H       -0.4987564852    1.0881332925    2.3020952102
H        5.9340253457    1.3378913627    1.7601447885
H        4.7564420012   -2.5629398921    3.1654015109
H        0.1148523149   -0.7454178421   -2.2804643244
H        1.7048483524    0.1802781819    1.6218785516
H        4.3921184408    1.0920927234   -0.1976004433
H        3.2180323544   -2.7986227322    1.2039115194
