29   
torsion grid (-165,)
C       -1.3361220217   -1.8708384003    1.4345995299
C       -2.2151408003   -2.3967088834    2.3556127801
C       -1.2755089579   -0.4663520118    1.2847442168
C       -2.9899784981   -1.4770324830    3.0890748262
C       -0.7607920700    0.6288316410   -1.0427402439
C        0.3819249840   -0.3429246554   -0.8250025280
C       -0.3319059264    0.2728319322    0.3675271199
C        0.7057733672   -1.8427532829   -2.8176671109
C       -4.6456539366   -1.0243487005    4.7356899888
C        0.2672992681   -1.7635035239   -1.3485318887
N       -2.0161036091    0.3385965732    2.0542211643
N       -2.8773732072   -0.1597674372    2.9489362228
N        0.4435412460    1.3262843474    1.0105814780
O       -3.8702523264   -1.9774505529    3.9851323966
H       -0.6916832196   -2.5212795642    0.8582642156
H       -2.3149242650   -3.4625797647    2.5365274722
H       -0.5479532121    1.6409243962   -1.3715194632
H       -1.6971288687    0.2066802776   -1.3990938028
H        1.3706711445    0.0910924222   -0.9561245973
H        0.0917120252   -1.1844371525   -3.4413398351
H        0.6137595839   -2.8631127969   -3.2049898189
H        1.7499449930   -1.5320460157   -2.9341663206
H       -5.2825355960   -1.6268716350    5.3840748971
H       -5.2503282675   -0.4051247162    4.0681494741
H       -3.9950183371   -0.3758612059    5.3279628031
H        0.8876936124   -2.4449120059   -0.7507557108
H       -0.7660029785   -2.1181344470   -1.2698129103
H        1.0320953098    0.9116732724    1.7340722379
H       -0.2104196025    1.9406316779    1.4970933847
29   
torsion grid (-150,)
C       -1.0586270962   -1.7925067373    1.5921531066
C       -1.9395860396   -2.3426173308    2.4962404226
C       -1.1994117774   -0.4256609884    1.2602749409
C       -2.9161196949   -1.4777044904    3.0302205888
C       -0.6584086148    0.7457456674   -1.0165329542
C        0.4249448370   -0.3031409751   -0.8410024126
C       -0.2406149040    0.3224528952    0.3714041579
C        0.4456703588   -1.7966354467   -2.8722184021
C       -4.7829547691   -1.1074888328    4.4572562184
C        0.1833690054   -1.7079320320   -1.3624563774
N       -2.1317490866    0.3363921214    1.8391341765
N       -2.9946822485   -0.1869891914    2.7198070043
N        0.5856939985    1.3057478054    1.0611474138
O       -3.7974372405   -2.0035932936    3.9104129502
H       -0.2657957063   -2.3872099778    1.1535308326
H       -1.9009372116   -3.3821212485    2.8072299265
H       -0.3792640694    1.7485123304   -1.3233146949
H       -1.6251420457    0.3999072565   -1.3729826117
H        1.4386772531    0.0622323089   -0.9893383203
H       -0.2087539590   -1.1110240064   -3.4207800992
H        0.2689709759   -2.8104569233   -3.2473197889
H        1.4811382049   -1.5268604071   -3.1080762992
H       -5.3834132933   -1.7236243060    5.1272480672
H       -5.4029342067   -0.6825704176    3.6637554510
H       -4.3038505019   -0.2932333013    5.0068447309
H        0.8339921058   -2.4243286000   -0.8428433672
H       -0.8486601519   -2.0147707228   -1.1585853481
H        1.1295784623    0.8419895662    1.7895235590
H       -0.0349521230    1.9616935289    1.5371436115
29   
torsion grid (-135,)
C       -0.8552681095   -1.6959333621    1.7483195194
C       -1.7407775165   -2.2646562717    2.6341287529
C       -1.1280464890   -0.3951228489    1.2635206334
C       -2.8575403333   -1.4806729788    2.9944847755
C       -0.5998314387    0.8309062406   -0.9743082958
C        0.4214595859   -0.2869843799   -0.8644419256
C       -0.1605951339    0.3488925254    0.3840603093
C        0.2217059364   -1.7900567209   -2.8838784726
C       -4.8756240229   -1.2166264783    4.2258340327
C        0.0649015423   -1.6752463221   -1.3615583425
N       -2.2003330990    0.2896870519    1.6646452198
N       -3.0694410393   -0.2533922211    2.5312204174
N        0.7384352059    1.2555114940    1.0864321730
O       -3.7408242644   -2.0247563497    3.8614809442
H        0.0348114466   -2.2250022504    1.4225824764
H       -1.6123202936   -3.2583607909    3.0522358583
H       -0.2641050063    1.8183559698   -1.2737550001
H       -1.6019759110    0.5608736770   -1.2954626272
H        1.4498860995    0.0138315281   -1.0525156604
H       -0.4273135506   -1.0718735237   -3.3960422552
H       -0.0369638907   -2.7945966250   -3.2357196899
H        1.2530381039   -1.5820595646   -3.1902575042
H       -5.4511841720   -1.8337909472    4.9164211782
H       -5.4708014909   -0.9649475002    3.3443944748
H       -4.5529758878   -0.2919454374    4.7110372736
H        0.7029210650   -2.4255281124   -0.8752891959
H       -0.9670969757   -1.9189638926   -1.0842425753
H        1.2697574049    0.7414195643    1.7896324583
H        0.1770146243    1.9445082026    1.5882820801
29   
torsion grid (-120,)
C       -0.6995291713   -1.5630543239    1.9245447648
C       -1.6010157454   -2.1409682003    2.7853107609
C       -1.0555575827   -0.3500197893    1.2859280762
C       -2.8223764706   -1.4534082554    2.9641341393
C       -0.5268714482    0.9000344483   -0.9304459345
C        0.4150047511   -0.2884736909   -0.8748964035
C       -0.0734994178    0.3684161641    0.4031510440
C        0.0278660327   -1.8039187031   -2.8610054068
C       -4.9649092256   -1.3028347007    3.9861813899
C       -0.0640602193   -1.6510811696   -1.3369712135
N       -2.2295622710    0.2394356696    1.5061392246
N       -3.1183831314   -0.3144273354    2.3501328114
N        0.9107294055    1.1904212895    1.0947033769
O       -3.7208760457   -2.0062684220    3.8097591319
H        0.2641511452   -2.0223145091    1.7212448765
H       -1.4161606781   -3.0735511005    3.3096154350
H       -0.1281870673    1.8631457618   -1.2317199459
H       -1.5586933639    0.7123824042   -1.2121457920
H        1.4545057107   -0.0632021214   -1.1043104251
H       -0.5816525187   -1.0457970413   -3.3641804001
H       -0.3212412328   -2.7907504539   -3.1837191282
H        1.0603321634   -1.6832101110   -3.2079645992
H       -5.5335448739   -1.9084198461    4.6925817739
H       -5.4976847780   -1.2145264439    3.0360018128
H       -4.7900364461   -0.3017897845    4.3884715949
H        0.5291173980   -2.4401370547   -0.8549346643
H       -1.1007837977   -1.8079581880   -1.0178053184
H        1.4409082218    0.6233325796    1.7566145309
H        0.4240490723    1.9033831798    1.6388916519
29   
torsion grid (-105,)
C       -0.5789083115   -1.4251352061    2.1235008490
C       -1.4896352140   -2.0171813896    2.9632959385
C       -0.9973344102   -0.3228509105    1.3369966457
C       -2.7878942622   -1.4574013155    2.9701648757
C       -0.4942227912    0.9507552426   -0.8687484597
C        0.3746639372   -0.2913517746   -0.8735207703
C       -0.0145292694    0.3728508543    0.4368537267
C       -0.1731218962   -1.7928689538   -2.8332063733
C       -5.0187063069   -1.4541063460    3.7935826502
C       -0.2033127155   -1.6234644428   -1.3086155172
N       -2.2431281574    0.1422786490    1.3924220477
N       -3.1443605306   -0.4273870322    2.2146651599
N        1.0495668839    1.1170816302    1.0952001790
O       -3.6963040300   -2.0239892068    3.7959293130
H        0.4392811261   -1.7977825494    2.0431252919
H       -1.2584319278   -2.8712912465    3.5924236436
H       -0.0482255914    1.8915243661   -1.1738883117
H       -1.5477466771    0.8322282576   -1.1009457418
H        1.4153439565   -0.1268989018   -1.1462894394
H       -0.7504059300   -1.0011612717   -3.3226068996
H       -0.5951928829   -2.7576417144   -3.1348122105
H        0.8523757327   -1.7409564048   -3.2162955578
H       -5.5830791841   -2.0479254266    4.5132484538
H       -5.4674705267   -1.5221295946    2.7993463238
H       -4.9884649723   -0.4046549074    4.0973366771
H        0.3561702890   -2.4428873898   -0.8367937234
H       -1.2360383865   -1.7122260088   -0.9529073428
H        1.5956628004    0.5048352021    1.7007759104
H        0.6413194929    1.8389465461    1.6891454102
29   
torsion grid (-90,)
C       -0.4922415571   -1.2524387366    2.2987414808
C       -1.4078473200   -1.8431891292    3.1339247909
C       -0.9500632640   -0.3037604722    1.3497846681
C       -2.7533882197   -1.4407222372    2.9725776909
C       -0.4817014953    0.9767514488   -0.8602434124
C        0.3212143771   -0.3045959637   -0.9172409628
C        0.0275101875    0.3618564728    0.4204933242
C       -0.3697628566   -1.7703507066   -2.8570501617
C       -5.0363195100   -1.5969841718    3.6187082249
C       -0.3353387783   -1.6062931345   -1.3319878459
N       -2.2390272881    0.0143422529    1.2521535841
N       -3.1463247730   -0.5563576945    2.0666812768
N        1.1613365193    1.0401529113    1.0277928080
O       -3.6668749189   -2.0059600492    3.7938812384
H        0.5609282510   -1.5164665359    2.3491794669
H       -1.1447121738   -2.5857862027    3.8809713558
H       -0.0001013798    1.8977178456   -1.1714557211
H       -1.5491560983    0.9139488403   -1.0423073769
H        1.3569036204   -0.1893333459   -1.2319229647
H       -0.9278047952   -0.9507603703   -3.3223717068
H       -0.8478592740   -2.7130199309   -3.1446274582
H        0.6417271499   -1.7650339679   -3.2791339175
H       -5.5971373641   -2.1614600639    4.3643138297
H       -5.3852805110   -1.8348920221    2.6106206110
H       -5.1437519614   -0.5222773380    3.7860816744
H        0.2039207613   -2.4512350068   -0.8822728745
H       -1.3568543222   -1.6468703583   -0.9388784051
H        1.7411749127    0.3899287312    1.5561682361
H        0.8323838410    1.7529165612    1.6783874227
29   
torsion grid (-75,)
C       -0.4410341473   -1.0700456609    2.5030663747
C       -1.3746910815   -1.6415405066    3.3330369771
C       -0.8907856478   -0.3110667691    1.3935872324
C       -2.7299003876   -1.4156997912    3.0055589411
C       -0.4162719876    0.9842439101   -0.8113401567
C        0.3090934196   -0.3364508866   -0.9190491243
C        0.0948195284    0.3150757257    0.4458370920
C       -0.4990565552   -1.7127086448   -2.8754738473
C       -5.0395203177   -1.7303006120    3.4740913217
C       -0.4242221291   -1.5914026751   -1.3476097710
N       -2.1915874401   -0.1487406224    1.1507489692
N       -3.1145841100   -0.7036107892    1.9553720414
N        1.2930729793    0.9079788958    1.0133706917
O       -3.6613696397   -1.9648979456    3.8180014532
H        0.6204671908   -1.2047703105    2.6892441417
H       -1.1140431476   -2.2420876098    4.1991655545
H        0.1087722593    1.8845724751   -1.1122843213
H       -1.4901627401    0.9800886361   -0.9621187464
H        1.3428398523   -0.2710828058   -1.2542786011
H       -1.0251573997   -0.8543791764   -3.3069967116
H       -1.0310396012   -2.6221162556   -3.1752664483
H        0.5017085321   -1.7475286270   -3.3213284286
H       -5.6144804063   -2.2493614099    4.2416183518
H       -5.2654019809   -2.1331539198    2.4834334134
H       -5.2635145275   -0.6605187777    3.4807064443
H        0.0822001336   -2.4732222617   -0.9319889623
H       -1.4371593135   -1.5880816172   -0.9334743257
H        1.8926293146    0.2057878573    1.4425493538
H        1.0505406334    1.5915541574    1.7291789574
29   
torsion grid (-60,)
C       -0.4418701203   -0.8726820509    2.6586564924
C       -1.3880482128   -1.4075134726    3.5007418873
C       -0.8604812194   -0.3326668462    1.4171148322
C       -2.7242048691   -1.3725852896    3.0490216465
C       -0.3863193404    0.9715808371   -0.7816794829
C        0.2695229236   -0.3747049113   -0.9467839316
C        0.1322300236    0.2452152373    0.4468773591
C       -0.6262657295   -1.6441633946   -2.9320745677
C       -5.0279809578   -1.8480593481    3.3943705844
C       -0.5187102180   -1.5855763335   -1.4020938460
N       -2.1489146904   -0.3387552893    1.0665349829
N       -3.0812471681   -0.8610397553    1.8783277025
N        1.3796875092    0.7640758368    0.9746197695
O       -3.6690923037   -1.8901823939    3.8673126147
H        0.6056482921   -0.8662677563    2.9426689760
H       -1.1475767318   -1.8409884293    4.4667268394
H        0.1703282850    1.8557870870   -1.0742594514
H       -1.4641022813    1.0169258735   -0.8942802758
H        1.2978048025   -0.3416203817   -1.3029449548
H       -1.1339644418   -0.7542084969   -3.3194513894
H       -1.1929213978   -2.5242339130   -3.2550671337
H        0.3636609935   -1.6925899729   -3.4005498714
H       -5.6180001280   -2.3065372877    4.1886088925
H       -5.1317183234   -2.4102516448    2.4626924237
H       -5.3467353911   -0.8167007906    3.2227157262
H       -0.0324852365   -2.4981970236   -1.0316783129
H       -1.5211715034   -1.5620002505   -0.9665991258
H        1.9596809198    0.0249756509    1.3668070713
H        1.2089992514    1.4544876658    1.7042809792
29   
torsion grid (-45,)
C       -0.4728063175   -0.6908797645    2.7777813735
C       -1.4388649046   -1.1752547478    3.6291435360
C       -0.8365765914   -0.3735415153    1.4455141697
C       -2.7353941149   -1.3234276477    3.0959586227
C       -0.3369171181    0.9489739739   -0.7280093036
C        0.2539572183   -0.4139059040   -0.9609697545
C        0.1758414120    0.1479872170    0.4635696721
C       -0.6723239063   -1.5530049047   -3.0057586790
C       -5.0158678639   -1.9425735678    3.3620445721
C       -0.5688334389   -1.5776217099   -1.4743254346
N       -2.0921532218   -0.5448307544    1.0205849223
N       -3.0401715969   -1.0198304743    1.8405133763
N        1.4577165623    0.5920241539    0.9733648099
O       -3.6976530562   -1.7970846017    3.9211018906
H        0.5458613693   -0.5540381044    3.1251503501
H       -1.2392976683   -1.4387466494    4.6633693238
H        0.2473534624    1.8225422219   -0.9988568637
H       -1.4151990149    1.0406200424   -0.8076393029
H        1.2798416757   -0.3987255985   -1.3249671671
H       -1.1567387102   -0.6317149371   -3.3473514006
H       -1.2606727181   -2.4001744385   -3.3746506633
H        0.3169905851   -1.6022724407   -3.4758235410
H       -5.6276373764   -2.3298271652    4.1774994679
H       -5.0057972405   -2.6416610613    2.5217526804
H       -5.3989335952   -0.9789779883    3.0162026368
H       -0.1039238160   -2.5190432560   -1.1519764434
H       -1.5685377322   -1.5507979288   -1.0363544137
H        1.9921348554   -0.1800009459    1.3675047280
H        1.3436305224    1.3027650028    1.6943954673
29   
torsion grid (-30,)
C       -1.0300072400    0.1668642487    2.7161790606
C       -1.7048121514   -0.5544477511    3.6740178905
C       -1.0933895145   -0.2638858899    1.3671974665
C       -2.4102624241   -1.6908291198    3.2300386180
C       -1.0913396461    0.5874823264   -1.0722922193
C        0.1765929600   -0.2100069872   -0.9740869410
C       -0.3756254416    0.4840824964    0.2766878508
C        0.4125070823   -2.0168086689   -2.7052929858
C       -3.7892845512   -3.5725829696    3.6912468104
C        0.2372045526   -1.7055591908   -1.2121934867
N       -1.7817753515   -1.3594595198    1.0338270634
N       -2.4406967919   -2.0709256961    1.9588652248
N        0.3678797266    1.6740962295    0.6385166635
O       -3.0781720135   -2.4125598152    4.1599498613
H       -0.4617364118    1.0479043784    2.9943505391
H       -1.7075230998   -0.2849911492    4.7258408738
H       -1.0650422534    1.5582839977   -1.5576659769
H       -2.0199409270    0.0308927888   -1.1527498623
H        1.0541814097    0.3238828378   -1.3342124010
H       -0.4295735183   -1.6242922718   -3.2861909031
H        0.4659085084   -3.0971805934   -2.8782791427
H        1.3295719296   -1.5680908738   -3.1053538889
H       -4.2476093257   -4.0024906898    4.5825049340
H       -3.1037943983   -4.2867065362    3.2274942387
H       -4.5534464322   -3.2907945755    2.9621633352
H        1.0808029552   -2.1249746181   -0.6477465142
H       -0.6650212608   -2.1846225473   -0.8310043712
H        1.1378125126    1.4549953796    1.2682528747
H       -0.2287463534    2.3652592044    1.0900879567
29   
torsion grid (-15,)
C       -1.1953477864    0.2752945695    2.6895084339
C       -1.9052979811   -0.4106533534    3.6469586943
C       -1.0547323149   -0.3000392716    1.4005316408
C       -2.4384518370   -1.6589473147    3.2659254479
C       -1.0327028476    0.6178205216   -1.0160659923
C        0.1850075656   -0.2610342385   -0.9718595071
C       -0.2984755106    0.4170470206    0.3137458927
C        0.3747712437   -1.9594265813   -2.8098000556
C       -3.6676620012   -3.6243178050    3.7952995075
C        0.1547617595   -1.7401814354   -1.3062177730
N       -1.5857465275   -1.4932972579    1.1269653746
N       -2.2811226261   -2.1708318769    2.0524211681
N        0.5223125707    1.5506925378    0.6945872806
O       -3.1359703889   -2.3489121160    4.1978887293
H       -0.7549504880    1.2388953508    2.9220907242
H       -2.0591693311   -0.0339565449    4.6536180589
H       -0.9617251920    1.6024934093   -1.4689192650
H       -1.9953788599    0.1217791388   -1.0996215658
H        1.0859583478    0.2393513399   -1.3215990653
H       -0.4109010930   -1.4684156788   -3.3953160336
H        0.3608344041   -3.0264941917   -3.0573229077
H        1.3378096260   -1.5522591617   -3.1404854665
H       -4.1826299732   -4.0070526789    4.6770613291
H       -2.8643441605   -4.3013941672    3.4933924467
H       -4.3647736212   -3.5081724667    2.9613745384
H        0.9417766611   -2.2549009692   -0.7397832902
H       -0.7888220100   -2.1827258068   -0.9894837276
H        1.2316087287    1.2815513309    1.3743175724
H       -0.0360056355    2.3018599327    1.0955694601
29   
torsion grid (0,)
C       -1.4162863894    0.3512140947    2.6052208073
C       -2.1637846758   -0.3106517301    3.5488348563
C       -1.0299746533   -0.3427896252    1.4285524790
C       -2.4879983235   -1.6552593253    3.2671290192
C       -0.9191516365    0.6803184458   -0.9589690730
C        0.2243939344   -0.3027354983   -0.9356423224
C       -0.2269935915    0.3586141088    0.3641692841
C        0.3017612354   -1.8950097124   -2.8715905809
C       -3.5472302587   -3.6916057460    3.8870745577
C        0.0551738946   -1.7488610000   -1.3633747009
N       -1.3762176202   -1.6156540729    1.2426579013
N       -2.1093191961   -2.2730179331    2.1573341168
N        0.6799485985    1.4066195018    0.8042359367
O       -3.2194249054   -2.3227298564    4.1886881050
H       -1.1338295968    1.3877731359    2.7586158132
H       -2.5012121748    0.1521674894    4.4712518655
H       -0.7630517254    1.6751684854   -1.3664926078
H       -1.9161760918    0.2681033476   -1.0889010916
H        1.1695854448    0.1326547888   -1.2533508264
H       -0.4064150725   -1.2861852987   -3.4455531387
H        0.1847888831   -2.9366907340   -3.1900004511
H        1.3132905121   -1.5734036913   -3.1471589415
H       -4.1297928035   -4.0375646294    4.7415020903
H       -2.6404292585   -4.2904547619    3.7697758565
H       -4.1350500362   -3.7554726727    2.9677111974
H        0.7589890627   -2.3806203457   -0.8081229762
H       -0.9390821754   -2.1110408001   -1.1029888791
H        1.3189102524    1.0577852388    1.5168851839
H        0.1765842445    2.2012435748    1.1934763248
29   
torsion grid (15,)
C       -1.6391758836    0.4360720314    2.3913619445
C       -2.4159420937   -0.1999414175    3.3271854361
C       -1.0025846737   -0.3413064897    1.3879149554
C       -2.5159509085   -1.6048279804    3.2082862120
C       -0.7703373262    0.7699108411   -0.9706168085
C        0.2828965970   -0.3199895435   -0.9456782264
C       -0.1506678012    0.3412818512    0.3500865397
C        0.1603682597   -1.8459614251   -2.9356604101
C       -3.3725930795   -3.6785162831    3.9943837161
C       -0.0394870288   -1.7252434030   -1.4185978672
N       -1.1601358903   -1.6614308227    1.3370482246
N       -1.9181268401   -2.2975522608    2.2502107393
N        0.8368631832    1.2851873922    0.8608194165
O       -3.2692668104   -2.2486995680    4.1282182367
H       -1.5242363708    1.5161942054    2.4094407071
H       -2.9415850305    0.3214500197    4.1213681276
H       -0.5100512754    1.7581989880   -1.3383890486
H       -1.7936446747    0.4535076003   -1.1560611146
H        1.2723089281    0.0253559018   -1.2378823098
H       -0.4916006176   -1.1491880764   -3.4751593760
H       -0.0678076618   -2.8594193410   -3.2835952994
H        1.1943358938   -1.6199953369   -3.2224554768
H       -4.0121632977   -3.9938886020    4.8193306116
H       -2.3875830636   -4.1463617812    4.0681526862
H       -3.8206061587   -3.9458652462    3.0339330527
H        0.5993290749   -2.4456721002   -0.8960785311
H       -1.0638761108   -1.9914549791   -1.1520522692
H        1.4389538434    0.8270077815    1.5437327409
H        0.3905253361    2.0739673379    1.3257554401
29   
torsion grid (30,)
C       -1.8327840658    0.4294718157    2.2010480544
C       -2.6319683552   -0.2044229981    3.1195033149
C       -0.9883408372   -0.3563811132    1.3750505992
C       -2.5410939434   -1.6149420968    3.1580617912
C       -0.6380307359    0.8454464746   -0.9290030429
C        0.3321385315   -0.3247641084   -0.9188648330
C       -0.0845600418    0.3219322801    0.3822249905
C        0.0261559013   -1.7883588029   -2.9419821833
C       -3.2279724509   -3.6930543580    4.0874787935
C       -0.1149648127   -1.6857726358   -1.4172842377
N       -0.9714788858   -1.6840609539    1.4613980005
N       -1.7498206840   -2.3173807585    2.3597064156
N        0.9515836854    1.1686728364    0.9667329600
O       -3.3170145866   -2.2560933854    4.0607133859
H       -1.8519765295    1.5109485776    2.0916432167
H       -3.3113663025    0.3190217472    3.7852898718
H       -0.2907446285    1.8221097466   -1.2524704396
H       -1.6754394453    0.6153804908   -1.1595440585
H        1.3507108023   -0.0591231970   -1.1935299569
H       -0.5804930967   -1.0273124368   -3.4461597081
H       -0.2959026722   -2.7712554966   -3.3030249403
H        1.0664468484   -1.6425839330   -3.2560930443
H       -3.9213016550   -4.0043033069    4.8694311044
H       -2.2100070934   -4.0134389059    4.3233127084
H       -3.5179249540   -4.1166391567    3.1225585248
H        0.4741950055   -2.4684371239   -0.9282415516
H       -1.1525581996   -1.8713482625   -1.1271110518
H        1.5290854227    0.6127975556    1.5974108156
H        0.5357077339    1.9157310220    1.5224202452
29   
torsion grid (45,)
C       -1.9940729087    0.4046955218    1.9773756267
C       -2.8240254079   -0.2268030136    2.8720364815
C       -0.9784852397   -0.3528766795    1.3444255847
C       -2.5844814581   -1.6037358856    3.0803501492
C       -0.4994179673    0.9157202133   -0.8967512106
C        0.3717383598   -0.3317496445   -0.9083103195
C       -0.0128004316    0.3093039845    0.4020506464
C       -0.0916818357   -1.7479740990   -2.9420203952
C       -3.1453097793   -3.6470663289    4.1598727231
C       -0.1952813824   -1.6432892944   -1.4147832298
N       -0.8241388473   -1.6546365419    1.5828963420
N       -1.6286091725   -2.2827298960    2.4586859966
N        1.0709472043    1.0448664303    1.0461415198
O       -3.3889360667   -2.2420432912    3.9596234356
H       -2.1113162527    1.4596742375    1.7424094037
H       -3.6314393449    0.2740011546    3.3975181516
H       -0.0634103580    1.8665166206   -1.1874278292
H       -1.5473575202    0.7816138015   -1.1548995336
H        1.4118416025   -0.1528189012   -1.1719976726
H       -0.6382201708   -0.9334276206   -3.4309096834
H       -0.5040990742   -2.6967001057   -3.3024972554
H        0.9517433117   -1.6909652507   -3.2733046019
H       -3.8904548888   -3.9611869691    4.8913815444
H       -2.1347847328   -3.8142432896    4.5412546496
H       -3.2660879847   -4.1980396400    3.2237274178
H        0.3325168985   -2.4766875999   -0.9393992954
H       -1.2421168546   -1.7403413845   -1.1093635277
H        1.5991891156    0.4064959467    1.6414991832
H        0.6916005621    1.7710884378    1.6541822115
29   
torsion grid (60,)
C       -2.0923396139    0.3133348438    1.7922242678
C       -2.9466949297   -0.3334620725    2.6547585942
C       -0.9353667640   -0.3702863557    1.3525019349
C       -2.5845430861   -1.6461054221    3.0277845374
C       -0.3634778453    0.9795400327   -0.8129000652
C        0.4152252698   -0.3246607707   -0.8774067355
C        0.0779852160    0.2884953660    0.4591017654
C       -0.1654467523   -1.6859307381   -2.9244284174
C       -3.0393569074   -3.6373243458    4.2469322011
C       -0.2514354084   -1.5826799402   -1.3963610894
N       -0.6634747245   -1.6160537499    1.7446083520
N       -1.4888022150   -2.2558513133    2.5887806578
N        1.2051690985    0.9085459198    1.1433014244
O       -3.4131739917   -2.2975861123    3.8746106140
H       -2.2927934125    1.3230697123    1.4439815825
H       -3.8583489877    0.1123541117    3.0407362819
H        0.1428429847    1.9050886386   -1.0680326814
H       -1.4172600913    0.9347281000   -1.0783455621
H        1.4645845945   -0.2171135514   -1.1431740514
H       -0.6504275376   -0.8284488792   -3.4046022469
H       -0.6514821031   -2.5977377918   -3.2882932236
H        0.8774343850   -1.7069016287   -3.2611009975
H       -3.8283213719   -3.9733788786    4.9204731410
H       -2.0708131612   -3.6425555218    4.7533852091
H       -2.9821087546   -4.2822324434    3.3664053363
H        0.2135804732   -2.4578279728   -0.9289133685
H       -1.3025670111   -1.6003197715   -1.0867859968
H        1.6845337261    0.1965326061    1.6952671015
H        0.8685441920    1.6130724660    1.8003018510
29   
torsion grid (75,)
C       -2.1988914668    0.1963608351    1.5808605549
C       -3.0722962467   -0.4627629362    2.4165882667
C       -0.9288157777   -0.3761793525    1.3494396711
C       -2.6114911075   -1.6723421287    2.9771807918
C       -0.2783339094    1.0335211143   -0.7565777979
C        0.4131811059   -0.3125473011   -0.8720958389
C        0.1205180248    0.2744296611    0.4904610980
C       -0.2790079013   -1.5941638901   -2.9393910036
C       -2.9784896428   -3.5711631660    4.3620883696
C       -0.3359096441   -1.5150252053   -1.4086964589
N       -0.5629079718   -1.5250125891    1.9233141526
N       -1.4031864118   -2.1745933532    2.7411475253
N        1.2857430547    0.7895036591    1.1927946704
O       -3.4577612517   -2.3372129233    3.7956869234
H       -2.4696182898    1.1359112265    1.1080652867
H       -4.0669026479   -0.0957804825    2.6509407076
H        0.2888304463    1.9308609869   -0.9817563222
H       -1.3307427078    1.0700079147   -1.0274600720
H        1.4665781533   -0.2672002749   -1.1397269117
H       -0.7177934899   -0.6993467534   -3.3950398242
H       -0.8248328261   -2.4674438741   -3.3127579962
H        0.7557067828   -1.6712136742   -3.2922706465
H       -3.8015291297   -3.9381053916    4.9761012813
H       -2.0887306835   -3.3974529252    4.9726422192
H       -2.7335401055   -4.2891629662    3.5752817998
H        0.0835484931   -2.4269368721   -0.9669743706
H       -1.3822665708   -1.4761074389   -1.0833705706
H        1.7063504483    0.0233165851    1.7196930008
H        0.9930215154    1.4877281916    1.8770133692
29   
torsion grid (90,)
C       -2.2407586024    0.0368110697    1.3711107796
C       -3.1225493436   -0.6260782579    2.1951022775
C       -0.8941232848   -0.3884258785    1.3451888646
C       -2.5952625177   -1.6900477262    2.9554313068
C       -0.1848019644    1.0738590707   -0.7170534726
C        0.4244488709   -0.3018819355   -0.8912768353
C        0.1766418031    0.2499722070    0.5009521844
C       -0.3659662218   -1.4561718411   -2.9988604677
C       -2.8999376357   -3.4419937764    4.5353613777
C       -0.3934445157   -1.4405514717   -1.4652275131
N       -0.4690173398   -1.3984020835    2.1089459198
N       -1.3163493310   -2.0508840723    2.9157807040
N        1.3776991047    0.6733020957    1.2006294777
O       -3.4494586147   -2.3584299767    3.7628580869
H       -2.5674711255    0.8738024778    0.7624194433
H       -4.1722595922   -0.3619200799    2.2792966631
H        0.4351741288    1.9435705376   -0.9081423904
H       -1.2312203180    1.1884564333   -0.9867146280
H        1.4783319252   -0.3098497091   -1.1606321156
H       -0.7672166517   -0.5218484505   -3.4071825256
H       -0.9607502359   -2.2845367028   -3.3988055869
H        0.6576572149   -1.5680369453   -3.3737444262
H       -3.7417972413   -3.8385976970    5.1037330142
H       -2.1165764329   -3.0809991745    5.2066889862
H       -2.4797030315   -4.2101490985    3.8811436400
H       -0.0107777575   -2.3914699390   -1.0738609334
H       -1.4314978635   -1.3666035180   -1.1201986481
H        1.7349614409   -0.1261899367    1.7247535437
H        1.1321603338    1.3823928272    1.8922489208
29   
torsion grid (105,)
C       -2.2787706186   -0.1870554920    1.1866444353
C       -3.1751316351   -0.8399441587    2.0010035797
C       -0.8985774171   -0.4470811558    1.3551019995
C       -2.6337068293   -1.7311168414    2.9505279137
C       -0.1281252965    1.0835351395   -0.6436074488
C        0.4136434427   -0.3052501960   -0.8954632727
C        0.1938089309    0.1837817901    0.5323866336
C       -0.4166661982   -1.2804789797   -3.0746963988
C       -2.9374370115   -3.2927752328    4.7183278486
C       -0.4456622148   -1.3714279790   -1.5432518512
N       -0.4664883649   -1.2956884535    2.2916029860
N       -1.3295583139   -1.9403486475    3.0891060318
N        1.4188005897    0.5214801908    1.2344930885
O       -3.5027895121   -2.3872188574    3.7524129437
H       -2.6258205278    0.5218083336    0.4425834406
H       -4.2487790349   -0.6901824942    1.9418620890
H        0.5343013026    1.9311875316   -0.7851878008
H       -1.1660243044    1.2700609145   -0.9039253402
H        1.4683532412   -0.3467185755   -1.1578008429
H       -0.7857650326   -0.3068362566   -3.4158076855
H       -1.0384701066   -2.0583165091   -3.5310130781
H        0.6030968854   -1.3998146639   -3.4574551809
H       -3.7937256392   -3.7102939673    5.2489040559
H       -2.2774258946   -2.7607958487    5.4083040430
H       -2.3682570144   -4.0829076973    4.2218750887
H       -0.0954315854   -2.3608218100   -1.2226767625
H       -1.4812850569   -1.2891388166   -1.1949838183
H        1.7152841397   -0.3008377365    1.7608321474
H        1.2128422580    1.2371669257    1.9325797915
29   
torsion grid (120,)
C       -2.2811165141   -0.4532305919    1.0518103942
C       -3.1851244006   -1.0817221413    1.8744748479
C       -0.9004540435   -0.5583205292    1.3546159555
C       -2.6562104871   -1.7922242995    2.9727648821
C       -0.1249112646    1.0517310229   -0.5728565351
C        0.3877013449   -0.3233165441   -0.9230666906
C        0.1991610134    0.0724149855    0.5421624471
C       -0.4487153715   -1.1244710979   -3.1668295591
C       -2.9818519978   -3.1397716699    4.9043474233
C       -0.4716272260   -1.3393267294   -1.6472941181
N       -0.4852035848   -1.2326339620    2.4298771923
N       -1.3580691490   -1.8541005410    3.2377320186
N        1.4437301969    0.3509309055    1.2330386344
O       -3.5346390479   -2.4232401195    3.7847922653
H       -2.6278018520    0.1249128574    0.2025139913
H       -4.2581641144   -1.0414854906    1.7147901951
H        0.5514993450    1.8948877318   -0.6678936771
H       -1.1644220405    1.2778876730   -0.7918034738
H        1.4409059040   -0.3573807290   -1.1924680570
H       -0.8283005403   -0.1301188340   -3.4268845234
H       -1.0646638864   -1.8689749821   -3.6827243426
H        0.5707770115   -1.2022210205   -3.5607117150
H       -3.8426653923   -3.5690275972    5.4179789794
H       -2.4354058136   -2.4626741248    5.5659313447
H       -2.3035086213   -3.9264257097    4.5640846404
H       -0.1104533865   -2.3480985748   -1.4101360855
H       -1.5065077065   -1.2986502425   -1.2934640889
H        1.7302654217   -0.4975084102    1.7216196821
H        1.2612030383    1.0319460077    1.9713720742
29   
torsion grid (135,)
C       -2.2422785264   -0.7017983308    0.9652626834
C       -3.1499135681   -1.2987104523    1.8053004377
C       -0.8757772983   -0.6711307599    1.3493023284
C       -2.6442360006   -1.8363233512    3.0086127063
C       -0.1408740486    1.0372887131   -0.4860208302
C        0.3780552963   -0.2959515470   -0.9557464314
C        0.2213311413   -0.0276673161    0.5431571362
C       -0.4243275253   -0.9171500025   -3.2645787078
C       -3.0015354533   -2.9672789654    5.0688456042
C       -0.4452184468   -1.2722805219   -1.7712615000
N       -0.4882280972   -1.1718478732    2.5249474079
N       -1.3668895806   -1.7615855105    3.3528378358
N        1.4814785982    0.2054592435    1.2189742947
O       -3.5276596450   -2.4366517666    3.8384718322
H       -2.5802266881   -0.2459588688    0.0420497177
H       -4.2113816157   -1.3549185020    1.5846979946
H        0.5210502819    1.8959185108   -0.5323044577
H       -1.1918586935    1.2628758416   -0.6428840106
H        1.4293455252   -0.2810856680   -1.2349630667
H       -0.8425444668    0.0810705149   -3.4347991412
H       -1.0077535391   -1.6347714517   -3.8514145702
H        0.5990892253   -0.9176367609   -3.6558479771
H       -3.8615837633   -3.4002292799    5.5806851652
H       -2.5520714548   -2.1740951752    5.6718283461
H       -2.2460153695   -3.7315945142    4.8692850885
H       -0.0443298470   -2.2834233404   -1.6260670210
H       -1.4818883665   -1.3087900452   -1.4267587905
H        1.8052939289   -0.6811924295    1.6059188051
H        1.3064601890    0.7901322105    2.0373173709
29   
torsion grid (150,)
C       -2.2786052560   -0.9105609419    0.9709192491
C       -3.1919706255   -1.4743507293    1.8268216304
C       -0.9412376412   -0.7373111012    1.4159591198
C       -2.7257301060   -1.8307760923    3.1108462879
C       -0.2301642309    1.0764846046   -0.3103369226
C        0.2809907336   -0.2057258800   -0.9072916269
C        0.1523572841   -0.0842620621    0.6116383559
C       -0.2923503426   -0.7187478240   -3.3026622634
C       -3.1300208707   -2.7393862436    5.2698878585
C       -0.5267190822   -1.0958711599   -1.8327523575
N       -0.5949532767   -1.0669159164    2.6631467250
N       -1.4806392861   -1.6197468300    3.5096775261
N        1.4324509752    0.0869921773    1.2687291713
O       -3.6150995221   -2.3962771647    3.9587570773
H       -2.5920535712   -0.5910019952   -0.0146704592
H       -4.2313178274   -1.6358297003    1.5580343001
H        0.4252585809    1.9410251476   -0.2847267353
H       -1.2880957131    1.3010054198   -0.4181708819
H        1.3318328287   -0.1617501214   -1.1859788415
H       -0.5808303837    0.3215109650   -3.4891753382
H       -0.8756330817   -1.3585036670   -3.9735037539
H        0.7639813893   -0.8239001566   -3.5735928884
H       -3.9874790594   -3.1753051629    5.7835641989
H       -2.7753259807   -1.8497961289    5.7967428122
H       -2.3118141317   -3.4611759687    5.2034312760
H       -0.2435952406   -2.1435949777   -1.6701197432
H       -1.5972799236   -1.0335359418   -1.6250847993
H        1.8009707733   -0.8359587241    1.5007551163
H        1.2718982125    0.5271256385    2.1752451355
29   
torsion grid (165,)
C       -2.0046299941   -1.6643337090    0.9597888691
C       -2.8672190744   -2.1910959985    1.8903782529
C       -1.4165144542   -0.3992631314    1.2156537342
C       -3.1136664479   -1.4146203490    3.0424569122
C       -0.9682246153    0.5295540539   -1.1722966207
C        0.2538523619   -0.3049515866   -0.8929412141
C       -0.4996859586    0.3352234865    0.2714061542
C        1.2710499943   -1.9830932542   -2.4692064153
C       -4.2106017990   -1.1159803278    5.1303342446
C        0.3587497686   -1.7797423109   -1.2510542714
N       -1.7151105431    0.2753608490    2.3295381128
N       -2.5595820669   -0.2278814609    3.2442938424
N        0.1966483636    1.4867986971    0.8138700047
O       -3.9613143526   -1.9239183354    3.9654515289
H       -1.7866533124   -2.2137473497    0.0541397341
H       -3.3508022128   -3.1552725510    1.7670744964
H       -0.8498042066    1.5262968969   -1.5850543425
H       -1.8708139735    0.0023794559   -1.4718828214
H        1.1878343432    0.2304181301   -1.0490545451
H        0.8977877947   -1.4232911505   -3.3336741753
H        1.3277237200   -3.0404653326   -2.7487440388
H        2.2890423346   -1.6357869533   -2.2614656983
H       -4.9066642458   -1.6984960986    5.7347386951
H       -4.6527801386   -0.1567257160    4.8490418959
H       -3.2835900764   -0.9311558681    5.6792384834
H        0.7485921804   -2.3551019865   -0.4016980239
H       -0.6248595945   -2.1954795068   -1.4912361973
H        0.8562985604    1.1617598822    1.5219514048
H       -0.4787810616    2.0497480982    1.3314522233
29   
torsion grid (180,)
C       -1.6721823225   -1.8233218534    1.1598662375
C       -2.5524362325   -2.3456189351    2.0795752246
C       -1.3416622901   -0.4490530712    1.2411024060
C       -3.0678355474   -1.4563296946    3.0437804373
C       -0.8785561931    0.5712705751   -1.1188091134
C        0.3259322671   -0.3084163003   -0.8812673690
C       -0.4151830468    0.2924028582    0.3073785150
C        1.0571411772   -1.8477305015   -2.7279484328
C       -4.4581054208   -1.0330827386    4.9259843735
C        0.3648494250   -1.7496581578   -1.3609109630
N       -1.8616923078    0.3197514932    2.2036236340
N       -2.7247885939   -0.1753270517    3.1008978728
N        0.3081655074    1.4080907997    0.8981081956
O       -3.9427662522   -1.9540944594    3.9469185999
H       -1.2346732998   -2.4629121169    0.4063894762
H       -2.8450188363   -3.3911307234    2.0880961789
H       -0.7410333020    1.5851652739   -1.4807772955
H       -1.7885867142    0.0740432744   -1.4460359596
H        1.2757870459    0.2046178782   -1.0155956702
H        0.5375306806   -1.2334390310   -3.4711674748
H        1.0722285593   -2.8808630145   -3.0910949285
H        2.0933001658   -1.4965590956   -2.6712050144
H       -5.1343926263   -1.6257385131    5.5428110103
H       -4.9955211165   -0.2135342814    4.4419636479
H       -3.6482311803   -0.6172000137    5.5308765031
H        0.8954914937   -2.3832684013   -0.6380272698
H       -0.6481376926   -2.1527463673   -1.4604821006
H        0.9575555613    1.0428087405    1.5959409518
H       -0.3624368267    1.9709927600    1.4222495339
