7    
torsion grid (-165,)
C        0.1415479405    0.7430051722    1.2417815400
N       -2.1019606029   -2.7190716020   -0.3457918368
N       -0.3905440460   -0.0449817044    0.3851172981
N       -1.4157588729   -0.8342208431    0.9588807038
N       -1.7163987401   -1.7982747181    0.2086106708
H        0.9255047726    1.4019413217    0.8763604915
H       -0.1579384314    0.7877045478    2.2916032057
7    
torsion grid (-150,)
C        0.1450972729    0.7188665604    1.2372014692
N       -1.9957419639   -2.7703617322   -0.2692663750
N       -0.4674576628    0.0447049195    0.3394862440
N       -1.5244813253   -0.7319495985    0.8904169249
N       -1.7109047050   -1.7789695452    0.2227802894
H        0.9455944923    1.3718265694    0.8963454703
H       -0.1076540883    0.6819850007    2.2995980501
7    
torsion grid (-135,)
C        0.1418156695    0.6879871854    1.2279515582
N       -1.8835034326   -2.7970741954   -0.1776013018
N       -0.5376276168    0.1387111676    0.2956519343
N       -1.6243006481   -0.6375860420    0.8163537658
N       -1.6996118096   -1.7500653167    0.2454735922
H        0.9589456318    1.3362019289    0.9168612990
H       -0.0712657744    0.5579274462    2.2918712253
7    
torsion grid (-120,)
C        0.1327606700    0.6524481279    1.2133535260
N       -1.7691436412   -2.8009267110   -0.0730440229
N       -0.6020608885    0.2340994142    0.2571546222
N       -1.7140307604   -0.5527651560    0.7381187938
N       -1.6826490801   -1.7129318021    0.2748841687
H        0.9656605993    1.2988280719    0.9403858857
H       -0.0460848793    0.4173502292    2.2657090996
7    
torsion grid (-105,)
C        0.1191189069    0.6147361411    1.1968103155
N       -1.6589083822   -2.7857253860    0.0395777832
N       -0.6606884197    0.3274254880    0.2292658188
N       -1.7910423173   -0.4796598139    0.6546056074
N       -1.6605174686   -1.6706950804    0.3077883707
H        0.9651992151    1.2608293603    0.9649659524
H       -0.0287095144    0.2691914651    2.2235482249
7    
torsion grid (-90,)
C        0.1031994072    0.5768283452    1.1795095856
N       -1.5585276921   -2.7560947182    0.1574067547
N       -0.7130049791    0.4142815939    0.2134915060
N       -1.8530848448   -0.4186735348    0.5647880207
N       -1.6362861116   -1.6261678770    0.3429531839
H        0.9563616397    1.2285887807    0.9932851211
H       -0.0142053995    0.1173395843    2.1651279010
7    
torsion grid (-75,)
C        0.0875100578    0.5421358951    1.1641565965
N       -1.4786957869   -2.7194634429    0.2760863845
N       -0.7588625448    0.4909244750    0.2113596354
N       -1.8956204647   -0.3715570966    0.4674011219
N       -1.6129692466   -1.5839171622    0.3776429034
H        0.9379652867    1.2090958036    1.0273166310
H        0.0051247184   -0.0311162979    2.0925988003
7    
torsion grid (-60,)
C        0.0753139865    0.5118148152    1.1508089655
N       -1.4275009267   -2.6816223863    0.3925302865
N       -0.8001666564    0.5557158343    0.2227874768
N       -1.9171118162   -0.3377637165    0.3677001240
N       -1.5948577778   -1.5465339522    0.4100968758
H        0.9103762555    1.2054842899    1.0668806305
H        0.0383989550   -0.1709927102    2.0057577139
7    
torsion grid (-45,)
C        0.0653484067    0.4866974233    1.1405591323
N       -1.3964888949   -2.6454414116    0.5072355625
N       -0.8348063582    0.6069841243    0.2413952043
N       -1.9187126930   -0.3181673774    0.2616801059
N       -1.5828973343   -1.5167409708    0.4345130411
H        0.8729988883    1.2158766712    1.1217938326
H        0.0790100053   -0.2931062848    1.9093851944
7    
torsion grid (-30,)
C        0.0620009903    0.4665829308    1.1293723972
N       -1.3937923644   -2.6122908804    0.6185763520
N       -0.8684266581    0.6478711652    0.2701480964
N       -1.9049096970   -0.3109026270    0.1639306131
N       -1.5797961674   -1.4951309759    0.4516403652
H        0.8282340205    1.2367730143    1.1841110271
H        0.1411418958   -0.3968004528    1.7987832220
7    
torsion grid (-15,)
C        0.0617354948    0.4518913946    1.1210953352
N       -1.4158155294   -2.5799961443    0.7285791496
N       -0.8976708175    0.6771333462    0.3038375786
N       -1.8735839302   -0.3157378322    0.0665303049
N       -1.5811712039   -1.4816773780    0.4564393951
H        0.7724036900    1.2629322845    1.2623452854
H        0.2185543161   -0.4784434967    1.6777350242
7    
torsion grid (0,)
C        0.0652674916    0.4455813022    1.1127843954
N       -1.4660544639   -2.5517269329    0.8288631510
N       -0.9276614380    0.6945866263    0.3432934652
N       -1.8263229913   -0.3314376417   -0.0191744575
N       -1.5831485171   -1.4766555667    0.4586373425
H        0.7132494820    1.2868521498    1.3473856040
H        0.3091224565   -0.5310977628    1.5447725723
7    
torsion grid (15,)
C       -0.0918302807    0.5898619502    1.0533915855
N       -2.6423622059   -1.4787218464    0.1900441996
N        0.4699217928   -0.5509385884    0.9046846545
N       -0.3173708610   -1.7132288129    0.7505336641
N       -1.5361307875   -1.5222050324    0.4765185978
H        0.5744065743    1.4408318728    1.1749115005
H       -1.1721822122    0.7705026312    1.0664778711
7    
torsion grid (30,)
C       -0.0823401819    0.5962612600    1.0657425506
N       -2.6229019455   -1.5087778455    0.0786836492
N        0.4584251618   -0.5435934186    0.8532986348
N       -0.3557911131   -1.7019515637    0.8449867086
N       -1.5460232472   -1.5255322715    0.4667061765
H        0.5851987779    1.4550792195    1.0769545891
H       -1.1521154320    0.7646167938    1.2301897643
7    
torsion grid (45,)
C       -0.0689382303    0.6073733692    1.0813051928
N       -2.6041339785   -1.5609133047   -0.0229357827
N        0.4342979345   -0.5329217318    0.7989526216
N       -0.4055597604   -1.6772640982    0.9267715461
N       -1.5582257950   -1.5389998879    0.4456773490
H        0.5942471025    1.4662896441    0.9988363656
H       -1.1072352529    0.7725381833    1.3879547807
7    
torsion grid (60,)
C       -0.0510602921    0.6246672907    1.0962172250
N       -2.5864814655   -1.6383129761   -0.1167492229
N        0.3963113503   -0.5185515728    0.7464228384
N       -0.4687030849   -1.6388159675    1.0010621193
N       -1.5741222564   -1.5651257228    0.4184795174
H        0.6079399802    1.4766072026    0.9362682913
H       -1.0394322118    0.7956339200    1.5348613045
7    
torsion grid (75,)
C       -0.0295553969    0.6473487934    1.1124632106
N       -2.5689227173   -1.7405096702   -0.2026092362
N        0.3432361341   -0.4989895491    0.6956661292
N       -0.5439072772   -1.5855437206    1.0616619788
N       -1.5935172030   -1.6014796609    0.3865123730
H        0.6296018606    1.4860685885    0.8913453778
H       -0.9524833805    0.8292073929    1.6715222399
7    
torsion grid (90,)
C       -0.0052474814    0.6742483483    1.1317563170
N       -2.5491345010   -1.8663114551   -0.2784558811
N        0.2735392276   -0.4719233620    0.6476443060
N       -0.6293662836   -1.5178966349    1.1033332110
N       -1.6160683484   -1.6443321200    0.3518813838
H        0.6622414702    1.4927817878    0.8637698719
H       -0.8515120636    0.8695356100    1.7966328646
7    
torsion grid (105,)
C        0.0210770963    0.7027374697    1.1538625612
N       -2.5232454087   -2.0088790046   -0.3419520733
N        0.1887657275   -0.4357234898    0.6037926691
N       -0.7240976920   -1.4383616995    1.1247500917
N       -1.6404129232   -1.6886409976    0.3162970311
H        0.7039086149    1.4955654762    0.8502086082
H       -0.7415433951    0.9094044196    1.9096031850
7    
torsion grid (120,)
C        0.0475524855    0.7288364973    1.1762610375
N       -2.4866383706   -2.1555008335   -0.3910205850
N        0.0929535058   -0.3903806456    0.5642226204
N       -0.8269639120   -1.3501295957    1.1295501567
N       -1.6636781881   -1.7297152098    0.2825557883
H        0.7492419184    1.4933188918    0.8457475645
H       -0.6280154192    0.9396730697    2.0092454906
7    
torsion grid (135,)
C        0.0728210252    0.7496159749    1.1985183903
N       -2.4362356769   -2.2989823593   -0.4244839496
N       -0.0092167718   -0.3360262224    0.5298078474
N       -0.9381227415   -1.2547582851    1.1194718203
N       -1.6837854880   -1.7637562033    0.2510803245
H        0.7935982078    1.4847572045    0.8453777242
H       -0.5146065349    0.9552520648    2.0967899161
7    
torsion grid (150,)
C        0.0962316689    0.7621440621    1.2172156200
N       -2.3709806743   -2.4310018771   -0.4392298972
N       -0.1123214224   -0.2741620368    0.4973784085
N       -1.0558545056   -1.1537638226    1.0973806605
N       -1.6993423174   -1.7884239948    0.2256755173
H        0.8350124492    1.4712067926    0.8501047197
H       -0.4082931785    0.9501030506    2.1680370444
7    
torsion grid (165,)
C        0.1154791936    0.7654814760    1.2327050078
N       -2.2902482731   -2.5469346096   -0.4346789038
N       -0.2123199810   -0.2045194413    0.4648757633
N       -1.1780153075   -1.0486478923    1.0632523010
N       -1.7099482818   -1.8027444690    0.2082195145
H        0.8710890931    1.4507399074    0.8561520878
H       -0.3115844233    0.9227272030    2.2260363025
7    
torsion grid (180,)
C        0.1313111829    0.7593467408    1.2395222521
N       -2.2008804815   -2.6447566763   -0.4004169614
N       -0.3059812155   -0.1279612451    0.4270339418
N       -1.2993766913   -0.9409989544    1.0176089993
N       -1.7163559107   -1.8062387695    0.2040707013
H        0.9011083043    1.4279992505    0.8622884728
H       -0.2253731682    0.8687118282    2.2664546672
