14   
torsion grid (-75,)
C       -0.8059272982    1.4938454484   -0.3622938642
C        0.3115739907    1.0394989964   -1.0059512091
C       -1.3486779840    0.3782353330    0.7569531856
C       -1.0363850372   -2.0394303279    0.6959014234
N       -0.8353114398   -0.7207438593    0.0381379180
O       -2.0815754562    0.4711565070    1.6983712021
O        1.7787173793   -1.1730683886   -0.2357491724
O        1.1365384497    0.4738961685    1.5739911891
S        0.8919767516   -0.1281355414    0.2665090689
Cl       1.2073288136    1.5558010612   -2.3543308642
H       -1.4551642982    2.2924291005   -0.7096320692
H       -0.4231309869   -2.7727840991    0.1704980292
H       -2.0904565897   -2.2996568145    0.5763620854
H       -0.7940989652   -2.0371087005    1.7634303652
14   
torsion grid (-60,)
C       -0.8618220645    1.4908595025   -0.3759989772
C        0.3163233138    1.1290074748   -0.9304715361
C       -1.4041552294    0.3944389561    0.5899790480
C       -1.0086108855   -2.0211327294    0.8197694945
N       -0.7758923904   -0.7728618983    0.0545366753
O       -2.2630410588    0.4656296161    1.4314277475
O        1.7700748783   -1.1783718291   -0.4690464128
O        1.2184955058    0.2934330921    1.5177250410
S        0.8988912350   -0.2089532101    0.1837645601
Cl       1.2947552336    1.8421283776   -2.1238388345
H       -1.4673161173    2.3466127828   -0.6559886980
H       -0.4446971860   -2.8210237508    0.3384684329
H       -2.0754772868   -2.2414536767    0.7587769049
H       -0.7270293944   -1.9352310011    1.8740227189
14   
torsion grid (-45,)
C       -0.8852921692    1.4856562300   -0.3923977979
C        0.3473728079    1.2075295887   -0.8461371196
C       -1.4645399108    0.3739857436    0.4725136931
C       -0.9645501992   -1.9962025083    0.9457940528
N       -0.7285090057   -0.7846610896    0.1378005768
O       -2.4485774948    0.4257097521    1.1763121232
O        1.7137253689   -1.1703240386   -0.7088995239
O        1.3883834201    0.1567332409    1.4242421719
S        0.9290377569   -0.2446717564    0.0969788043
Cl       1.3993723723    2.0776584918   -1.8639688334
H       -1.4731353309    2.3648383762   -0.6329276420
H       -0.3950996709   -2.8162785605    0.5063652069
H       -2.0299664433   -2.2204418383    0.8852150045
H       -0.6874198610   -1.8572351751    1.9953168826
14   
torsion grid (-30,)
C       -0.9241502550    1.4644204279   -0.4477287047
C        0.3427483282    1.2218945645   -0.7948653461
C       -1.5488703002    0.3359074851    0.3180670586
C       -0.9974215604   -1.9763089060    1.0379149467
N       -0.7560222571   -0.8166869579    0.1651371148
O       -2.6183504506    0.3720699158    0.8950580605
O        1.5585980696   -1.2147613668   -0.9675915765
O        1.5009862504   -0.0572682404    1.2839233307
S        0.8962067561   -0.3321353935   -0.0171508133
Cl       1.4615873083    2.1659910114   -1.6688230209
H       -1.4951407790    2.3557536682   -0.6816638418
H       -0.4683994037   -2.8369351305    0.6258540296
H       -2.0702759194   -2.1688950672    1.0265522579
H       -0.6731513066   -1.7860855264    2.0654379220
14   
torsion grid (-15,)
C       -0.9380653931    1.4310360823   -0.4675901754
C        0.3597149985    1.2334505882   -0.7034416113
C       -1.6023079697    0.2814362426    0.2192094900
C       -0.9981622815   -1.9785459286    1.1221613981
N       -0.7391568502   -0.8151468353    0.2685337539
O       -2.7462739031    0.2789704144    0.6381513778
O        1.4435070217   -1.2210281003   -1.0925192720
O        1.6147008396   -0.1991843342    1.2159433635
S        0.8938803713   -0.3746280007   -0.0419361245
Cl       1.5203150936    2.2377177015   -1.4485900705
H       -1.5072510788    2.3181511505   -0.7203824736
H       -0.5603039436   -2.8658125003    0.6613034575
H       -2.0806481420   -2.0937381605    1.1810484022
H       -0.5886027586   -1.8322718752    2.1260339303
14   
torsion grid (0,)
C       -0.8682149115    1.3546312435   -0.5075676457
C        0.4423995780    1.1579025296   -0.6550549754
C       -1.5761908147    0.2236590713    0.1681098895
C       -1.0149194293   -2.0295764556    1.1695249122
N       -0.6751934809   -0.7849048921    0.4825174972
O       -2.7702779211    0.1882612329    0.4121932590
O        1.3519508180   -1.3637452255   -1.0391508825
O        1.7703366675   -0.2870830820    1.2102825855
S        0.9386535101   -0.4545218637    0.0236276513
Cl       1.6429807153    2.1499187936   -1.3527201888
H       -1.4221651566    2.2308279782   -0.8239566992
H       -0.7649914510   -2.8886230914    0.5417900016
H       -2.0909055331   -2.0053026736    1.3461028436
H       -0.4863993031   -2.0923195105    2.1242240014
14   
torsion grid (15,)
C       -0.9611119444    1.3783027001   -0.5655807876
C        0.3629422280    1.2487123024   -0.6603699360
C       -1.6269121911    0.2270445513    0.1168701047
C       -0.9991356342   -1.9684075335    1.1531479782
N       -0.6693410773   -0.6222415961    0.6752361749
O       -2.8309107549    0.0689985593    0.2147779166
O        1.1889482189   -1.2995384029   -1.0293467157
O        1.8514891890   -0.1477882569    1.1240041148
S        0.9024663880   -0.3427468889    0.0360873457
Cl       1.5356997039    2.2821573951   -1.3440301835
H       -1.5513093203    2.2097046527   -0.9333886731
H       -0.9268270927   -2.7038310014    0.3464157009
H       -2.0235206733   -1.9308568805    1.5242797104
H       -0.3241007954   -2.2346941628    1.9684819993
14   
torsion grid (30,)
C       -0.9586110264    1.3821475430   -0.6067397836
C        0.3753893280    1.3140448066   -0.5940091294
C       -1.6133183747    0.1778208258    0.0025381350
C       -0.9741606077   -1.9024195216    1.1994965040
N       -0.6547637056   -0.5416547121    0.7400980659
O       -2.7988642434   -0.0877867739   -0.0415904659
O        1.0415169608   -1.2458451568   -1.1438578860
O        1.9225179102   -0.2562204934    1.0141296218
S        0.8913925664   -0.3353284488   -0.0113709176
Cl       1.5551758383    2.4146367352   -1.1451197090
H       -1.5565534982    2.2021210353   -0.9879732654
H       -0.9967168075   -2.6163428105    0.3706758090
H       -1.9574089186   -1.8605411727    1.6682216851
H       -0.2304270097   -2.2025447687    1.9391729850
14   
torsion grid (45,)
C       -0.9411605136    1.3475330826   -0.6660578449
C        0.3968808232    1.3436232039   -0.5550364449
C       -1.5844120801    0.0713468731   -0.1397640148
C       -0.9131973874   -1.8490816973    1.2578045247
N       -0.6252880693   -0.5045936221    0.7231436885
O       -2.7286822005   -0.2938444427   -0.2934462316
O        0.8633581019   -1.2029373783   -1.3549892266
O        1.9867985742   -0.4486564688    0.7865429020
S        0.8764263130   -0.3725724965   -0.1532924778
Cl       1.5663164791    2.5175776151   -0.9475390199
H       -1.5513606876    2.1673701213   -1.0292354827
H       -0.9794783413   -2.6052303696    0.4694792057
H       -1.8704419196   -1.7904340877    1.7767532111
H       -0.1289904906   -2.1086318425    1.9702293107
14   
torsion grid (60,)
C       -0.9245397559    1.3348722744   -0.6863140976
C        0.4035030950    1.3634059753   -0.4375340898
C       -1.5647727898   -0.0144261963   -0.2403632114
C       -0.9142544824   -1.7619059538    1.3619433242
N       -0.6472875535   -0.4266467291    0.7756579067
O       -2.6339769320   -0.4907572626   -0.5244406092
O        0.6558374327   -1.1644070648   -1.4633292116
O        1.9707206518   -0.6454206428    0.6389185154
S        0.8173400314   -0.4122908922   -0.2214645998
Cl       1.5773592116    2.5838520918   -0.5877646319
H       -1.5364894268    2.1727610030   -1.0037902029
H       -0.9701560698   -2.5555931450    0.6102434130
H       -1.8733064722   -1.7002774572    1.8785539099
H       -0.1258511680   -1.9759433451    2.0844965885
14   
torsion grid (75,)
C       -0.8761641692    1.3182301591   -0.7128422645
C        0.4339473638    1.3657452349   -0.3244039345
C       -1.5590962741   -0.1603861354   -0.3397813163
C       -0.9014964168   -1.6745582224    1.4549909715
N       -0.7060545190   -0.3728813667    0.7625623476
O       -2.5416938346   -0.7177081389   -0.7346673213
O        0.5361235879   -1.0825586276   -1.6096842608
O        1.9095775430   -0.8219494454    0.4988112868
S        0.7749730085   -0.4239688596   -0.3286796599
Cl       1.6032556467    2.5933113620   -0.2109518278
H       -1.5015218094    2.1781069841   -0.9351654650
H       -0.9865308130   -2.5251840983    0.7712288575
H       -1.8255643318   -1.5949657100    2.0319118469
H       -0.0629786816   -1.8201842294    2.1373530362
