21   
torsion grid (-75,)
C       -4.5323810507    3.4817711627   -2.5801498981
C       -4.1503329492    2.9083655520   -4.6137675860
C       -2.9218135431    2.1310512544   -2.8442635973
C       -0.7626284177   -0.6474816432   -1.9228298175
C       -0.2535202896    0.4716577241   -0.9983662080
C       -1.4926624518    0.1167391968   -3.0349530778
C       -1.3939156028    1.5017377811   -1.0090078410
N       -4.8644533612    3.8089067475   -3.8277241102
N       -3.2207084815    3.3297616655   -2.2809409985
N       -3.3857923257    1.9146058187   -4.1519866333
N       -2.0183331834    1.2942437052   -2.3256203514
H       -5.2134195623    3.7848662599   -1.7737506304
H       -4.2765003829    2.9816570100   -5.6921902801
H        0.0377902908   -1.2806362152   -2.3136356240
H       -1.4699167833   -1.2889657032   -1.3856733208
H       -0.0207635401    0.1256048520    0.0117260891
H        0.6540924123    0.9187455369   -1.4181177166
H       -0.8093036343    0.4345299008   -3.8321830263
H       -2.3045258522   -0.4465110171   -3.4968266881
H       -2.1293589770    1.3132132608   -0.2172017530
H       -1.0472508348    2.5309986054   -0.9022282445
21   
torsion grid (-60,)
C       -4.5266287189    3.5414537817   -2.5401556953
C       -4.1698928462    2.8635919538   -4.5957321544
C       -2.9194740349    2.1195996559   -2.8516876108
C       -0.7447542694   -0.6532108564   -1.9402091490
C       -0.2551068618    0.4568292805   -0.9948564804
C       -1.4706857457    0.1203599626   -3.0487574985
C       -1.4049651865    1.4763209331   -1.0035854880
N       -4.8673280626    3.7456685506   -3.8216377342
N       -3.2562991777    3.2684297824   -2.1995783322
N       -3.3631981109    1.9022915568   -4.1410327700
N       -2.0090615997    1.2856572414   -2.3314685721
H       -5.1646378261    4.0021208772   -1.7789824595
H       -4.3159596252    2.9219174474   -5.6731447905
H        0.0643524538   -1.2750349621   -2.3314069574
H       -1.4524641282   -1.3073087956   -1.4190094881
H       -0.0300239368    0.0982726597    0.0126564623
H        0.6528878280    0.9180171152   -1.3983609293
H       -0.7831621280    0.4498985479   -3.8379994430
H       -2.2747766818   -0.4438771616   -3.5235576013
H       -2.1481004237    1.2686151057   -0.2237996697
H       -1.0691349669    2.5066920088   -0.8743721928
21   
torsion grid (-45,)
C       -4.5152357731    3.6243721786   -2.5470697990
C       -4.1978913133    2.8255674150   -4.5869047825
C       -2.9291492494    2.1138889538   -2.8472266713
C       -0.7261993468   -0.6449055742   -1.9539967868
C       -0.2609506812    0.4567645677   -0.9868216686
C       -1.4531712862    0.1352361279   -3.0574500868
C       -1.4248228525    1.4600080347   -0.9919774218
N       -4.8766488973    3.7260953380   -3.8361410443
N       -3.3093304134    3.2147101059   -2.1425978655
N       -3.3554463694    1.8987031659   -4.1321847205
N       -2.0090673003    1.2852551214   -2.3303854223
H       -5.1106086612    4.1951022053   -1.8306637087
H       -4.3827768050    2.8371241962   -5.6604007219
H        0.0949098241   -1.2496238519   -2.3470416600
H       -1.4294432429   -1.3165504556   -1.4493526718
H       -0.0413977476    0.0854158920    0.0172924216
H        0.6447460429    0.9365163554   -1.3735518327
H       -0.7638349084    0.4811692146   -3.8381913581
H       -2.2475726055   -0.4320607261   -3.5452149978
H       -2.1738417020    1.2285582574   -0.2246587112
H       -1.1058356810    2.4929391691   -0.8405590293
21   
torsion grid (-30,)
C       -4.4453229787    3.7093817939   -2.5416045177
C       -4.1912288247    2.8093004324   -4.5657823661
C       -2.9120403222    2.1050901680   -2.8367409616
C       -0.6960616066   -0.6596223647   -1.9774732878
C       -0.2479521931    0.4292483083   -0.9880535953
C       -1.4322488808    0.1308177522   -3.0681501277
C       -1.4267710891    1.4137942017   -0.9770717061
N       -4.8308579519    3.7381598614   -3.8281189366
N       -3.3228914299    3.1596701238   -2.0813259832
N       -3.3247600085    1.9023995141   -4.1211555990
N       -1.9908916985    1.2703333525   -2.3270873952
H       -4.9842869821    4.3668712175   -1.8579425140
H       -4.4228779498    2.7817022465   -5.6302159453
H        0.1341580081   -1.2451251979   -2.3803861542
H       -1.3901721874   -1.3509136361   -1.4869705380
H       -0.0244657224    0.0417351214    0.0090862485
H        0.6507842802    0.9302659256   -1.3640776174
H       -0.7490397005    0.4878754560   -3.8490676488
H       -2.2261617446   -0.4354865128   -3.5586148251
H       -2.1800361268    1.1463646785   -0.2255495903
H       -1.1282038229    2.4472178704   -0.7910567531
21   
torsion grid (-15,)
C       -4.4042104377    3.7670470626   -2.5576153199
C       -4.2190170332    2.7712000647   -4.5537341457
C       -2.9229977060    2.0892351066   -2.8315255348
C       -0.6740243522   -0.6575745134   -1.9910866014
C       -0.2521097611    0.4242345671   -0.9825800802
C       -1.4161631259    0.1357258072   -3.0758763695
C       -1.4486400357    1.3867531741   -0.9666210609
N       -4.8245610386    3.7308323682   -3.8329035217
N       -3.3760530417    3.0998570041   -2.0420072081
N       -3.3206398539    1.8932267673   -4.1182456962
N       -1.9948984682    1.2585768192   -2.3251045937
H       -4.8874003501    4.4944846479   -1.9050282201
H       -4.5010674314    2.6962673893   -5.6038272956
H        0.1690642099   -1.2228719127   -2.3961588478
H       -1.3594398193   -1.3677545077   -1.5155885344
H       -0.0290535002    0.0259580795    0.0104209892
H        0.6401706590    0.9467303623   -1.3445544187
H       -0.7341099672    0.5107273745   -3.8492512246
H       -2.1997828784   -0.4356178070   -3.5773597475
H       -2.2041165363    1.0914031952   -0.2279161975
H       -1.1727017034    2.4224933955   -0.7588213766
21   
torsion grid (0,)
C       -4.3467124911    3.8093093698   -2.5713501827
C       -4.2431990423    2.7327411477   -4.5348730414
C       -2.9293483051    2.0670146151   -2.8210990641
C       -0.6432059487   -0.6581900715   -2.0036926255
C       -0.2477309318    0.4166550812   -0.9770024863
C       -1.3960614420    0.1359333028   -3.0808558618
C       -1.4648195023    1.3522481261   -0.9527069070
N       -4.8095129800    3.7256727085   -3.8295357745
N       -3.4275546998    3.0341254295   -2.0050875620
N       -3.3153961698    1.8804622058   -4.1116156544
N       -1.9933350410    1.2417882848   -2.3193434020
H       -4.7683662084    4.5965351443   -1.9464628239
H       -4.5779562198    2.6121877550   -5.5651086703
H        0.2127939758   -1.2007961251   -2.4127002298
H       -1.3164238705   -1.3886623019   -1.5417182268
H       -0.0204942498    0.0079476744    0.0108116422
H        0.6345524591    0.9635888952   -1.3272622400
H       -0.7186767072    0.5291292866   -3.8490436400
H       -2.1704796957   -0.4413987094   -3.5901867623
H       -2.2200441631    1.0233731241   -0.2280047379
H       -1.2162127682    2.3897946776   -0.7202403859
21   
torsion grid (15,)
C       -4.2760081566    3.8519913602   -2.6010617092
C       -4.2636187036    2.7072589844   -4.5248868090
C       -2.9329003400    2.0539220458   -2.8184969796
C       -0.6185969098   -0.6519571591   -2.0140820466
C       -0.2509538768    0.4145142657   -0.9682879761
C       -1.3736370813    0.1448572448   -3.0879191705
C       -1.4845775061    1.3277995559   -0.9429675169
N       -4.7906161603    3.7344634858   -3.8360730690
N       -3.4805588661    2.9807271509   -1.9872555737
N       -3.3079547317    1.8790552446   -4.1148932222
N       -1.9926514462    1.2333434116   -2.3183401000
H       -4.6282159357    4.6930599082   -2.0035126129
H       -4.6497262803    2.5430806777   -5.5307751540
H        0.2501432554   -1.1749449976   -2.4217932815
H       -1.2842952707   -1.3995428211   -1.5689133616
H       -0.0262294535   -0.0047745106    0.0156629106
H        0.6249476182    0.9816383906   -1.3020991926
H       -0.6950855403    0.5562851121   -3.8452087010
H       -2.1363425467   -0.4359299296   -3.6110827957
H       -2.2422295828    0.9714471998   -0.2340568068
H       -1.2598169705    2.3659305533   -0.6891004340
21   
torsion grid (30,)
C       -4.2073366151    3.8815052121   -2.6345519950
C       -4.2964050087    2.6814816556   -4.5123501450
C       -2.9424153572    2.0432671464   -2.8160560616
C       -0.5990985344   -0.6401112352   -2.0213568050
C       -0.2602689247    0.4184411735   -0.9576949922
C       -1.3561568638    0.1578754913   -3.0931373563
C       -1.5105332113    1.3084336283   -0.9331722041
N       -4.7860816255    3.7410025187   -3.8382674618
N       -3.5451006680    2.9298848379   -1.9780425309
N       -3.3109845274    1.8788465344   -4.1189803594
N       -1.9970009441    1.2297414861   -2.3172160916
H       -4.4805678271    4.7704405330   -2.0641881193
H       -4.7333205748    2.4759975277   -5.4892355217
H        0.2825145942   -1.1432525483   -2.4264204739
H       -1.2566547770   -1.4043809282   -1.5927555779
H       -0.0379521620   -0.0103774352    0.0226889328
H        0.6085368086    1.0055628103   -1.2751078457
H       -0.6766722173    0.5867702089   -3.8395011107
H       -2.1069527001   -0.4266037344   -3.6294224263
H       -2.2702875037    0.9242968354   -0.2413387140
H       -1.3109150582    2.3464970298   -0.6583125027
21   
torsion grid (45,)
C       -4.1373848740    3.8995843176   -2.6617693196
C       -4.3394017460    2.6623363751   -4.4865876691
C       -2.9522893915    2.0385011148   -2.8050595514
C       -0.5842644934   -0.6260288914   -2.0262197689
C       -0.2713802848    0.4214888120   -0.9435201446
C       -1.3421836111    0.1762370401   -3.0945193182
C       -1.5358170191    1.2907713434   -0.9182716139
N       -4.7964940621    3.7508511068   -3.8215206364
N       -3.6144956802    2.8834798260   -1.9682415965
N       -3.3225257906    1.8855632998   -4.1158203309
N       -2.0011189134    1.2320173742   -2.3105181246
H       -4.3158240498    4.8306383384   -2.1189389232
H       -4.8252786755    2.4199031237   -5.4309597084
H        0.3086420913   -1.1104081562   -2.4294264722
H       -1.2346779071   -1.4059272861   -1.6152827023
H       -0.0517454818   -0.0188209793    0.0323550207
H        0.5910204926    1.0267703634   -1.2438758248
H       -0.6616949861    0.6217842758   -3.8297503026
H       -2.0830351606   -0.4089920084   -3.6437142490
H       -2.2978330883    0.8792610424   -0.2450331212
H       -1.3592455709    2.3268460416   -0.6206096028
21   
torsion grid (60,)
C       -4.0569655498    3.9012827000   -2.6986260965
C       -4.3848616003    2.6444723927   -4.4676234784
C       -2.9651956599    2.0301271108   -2.8052556116
C       -0.5710658570   -0.6112409985   -2.0359268708
C       -0.2859899086    0.4254311365   -0.9349589578
C       -1.3257928022    0.1953485453   -3.1030155785
C       -1.5627595102    1.2766727891   -0.9135895318
N       -4.8068834247    3.7586909311   -3.8019931102
N       -3.6907275608    2.8318668726   -1.9729170778
N       -3.3393286754    1.8881356582   -4.1253806830
N       -2.0100879313    1.2309861449   -2.3123502570
H       -4.1125218673    4.8659837890   -2.1838964022
H       -4.9179213108    2.3752030808   -5.3780863859
H        0.3333127643   -1.0783333375   -2.4339566615
H       -1.2162369955   -1.4050194497   -1.6437655149
H       -0.0733534721   -0.0261253814    0.0373008782
H        0.5721324752    1.0462395820   -1.2151560902
H       -0.6411914825    0.6616441531   -3.8211188220
H       -2.0516601627   -0.3903889809   -3.6711366525
H       -2.3265771248    0.8450493004   -0.2555429907
H       -1.4061740690    2.3116131532   -0.6005722530
21   
torsion grid (75,)
C       -4.0015487119    3.8827405342   -2.7537286681
C       -4.4307103835    2.6284700832   -4.4437040064
C       -2.9592718307    2.0386714681   -2.7915700861
C       -0.5585061680   -0.5988237724   -2.0392099155
C       -0.2950047329    0.4229876176   -0.9187711318
C       -1.3052625080    0.2176381927   -3.1048508703
C       -1.5794792748    1.2618504382   -0.9008241527
N       -4.8546908050    3.7712591510   -3.7700649724
N       -3.7607180600    2.7890043017   -1.9921240588
N       -3.3531833332    1.9026470952   -4.1320805753
N       -1.9997259459    1.2444910561   -2.3086965738
H       -3.8876497985    4.8707928844   -2.2882067513
H       -4.9862535772    2.3422884014   -5.3346027822
H        0.3543879040   -1.0534724809   -2.4321396561
H       -1.2025399293   -1.4030059140   -1.6670024520
H       -0.0909296681   -0.0421646737    0.0488559365
H        0.5610229495    1.0554692074   -1.1784979071
H       -0.6151336082    0.6947271870   -3.8098201474
H       -2.0252598182   -0.3618547274   -3.6862643795
H       -2.3510430707    0.8058623717   -0.2687438110
H       -1.4417195243    2.2912617929   -0.5615109751
