25   
torsion grid (-165,)
C       -3.6642390294   -2.7533001705   -1.6083147293
C       -2.4512045168   -2.4884015518   -2.2561323525
C       -3.7054835087   -2.7899915850   -0.2120951942
C       -1.2907708489   -2.2633997268   -1.5133571735
C       -2.5403514970   -2.5622474636    0.5298508315
C       -1.3219424511   -2.2985691678   -0.1094989121
C        0.5730348113   -0.7147854662    0.2764498939
C        0.9573668623   -3.2025193746    0.5434146110
C        0.2045835695    1.7199333711    0.1973911126
C       -0.0526721310   -2.0577810765    0.6940568554
N       -0.1348412495    0.3866709980    0.6785444587
O        1.6203058553   -0.6330226171   -0.3624957063
H       -4.5671581287   -2.9284843074   -2.1875058033
H       -2.4115483581   -2.4554852023   -3.3420968714
H       -4.6415715332   -2.9964036690    0.3008107653
H       -0.3536883462   -2.0498239227   -2.0221172487
H       -2.5785914579   -2.5981605754    1.6171011320
H        1.2898231726   -3.2915651132   -0.4929211604
H        1.8416547911   -3.0215845972    1.1607563195
H        0.4972858419   -4.1476955624    0.8470551731
H       -0.2444257241    2.4660515308    0.8576415678
H        1.2891948654    1.8336834490    0.2116963020
H       -0.1450103368    1.8884774419   -0.8292442568
H       -0.3349050977   -1.9742408441    1.7503896675
H       -1.0823711431    0.2291673245    0.9988827347
25   
torsion grid (-150,)
C       -3.6677919383   -2.8717154811   -1.6542751822
C       -2.4551083425   -2.5996916192   -2.2991503214
C       -3.7247934978   -2.8548574523   -0.2580455621
C       -1.3082009732   -2.3149261750   -1.5549994005
C       -2.5739454923   -2.5665017882    0.4844146244
C       -1.3550289986   -2.2959168316   -0.1516016054
C        0.5084649753   -0.6742309250    0.1879712080
C        0.9279330456   -3.1347208628    0.5774003744
C        0.3052689828    1.7784978352    0.2844745997
C       -0.1034812601   -2.0004861098    0.6637140224
N       -0.0123543444    0.4448499817    0.7805299715
O        1.3935460598   -0.6196531435   -0.6646668087
H       -4.5590445526   -3.0937908363   -2.2355433150
H       -2.4042145684   -2.6076786370   -3.3851548334
H       -4.6607525635   -3.0658610403    0.2533522635
H       -0.3717307296   -2.0935447193   -2.0601202018
H       -2.6239006658   -2.5610977039    1.5717996717
H        1.2796701243   -3.2547411319   -0.4492199819
H        1.7968281043   -2.9172841664    1.2061965922
H        0.4776810753   -4.0755214417    0.9079336696
H        0.0831354526    2.5147381981    1.0609526047
H        1.3683394454    1.8191657925    0.0440604932
H       -0.2621776388    2.0251246270   -0.6216891012
H       -0.4062939080   -1.8819909496    1.7106996058
H       -0.8639013008    0.3298243316    1.3151508093
25   
torsion grid (-135,)
C       -3.6820791698   -3.0496013773   -1.6916873295
C       -2.4738144934   -2.7703564727   -2.3412357490
C       -3.7497281693   -2.9620285634   -0.2985059844
C       -1.3414132695   -2.4094866436   -1.6073964941
C       -2.6150478298   -2.5975273219    0.4347703173
C       -1.4007459121   -2.3194046564   -0.2073643817
C        0.4356895049   -0.6409632413    0.0928744482
C        0.8938145218   -3.0642385954    0.5900692574
C        0.5051934672    1.8065730164    0.3898957800
C       -0.1694351816   -1.9530043097    0.6093212597
N        0.1318229954    0.4688051316    0.8321823051
O        1.1544799945   -0.5937358033   -0.9055416266
H       -4.5610589421   -3.3310043500   -2.2660586070
H       -2.4142925297   -2.8319558050   -3.4251066488
H       -4.6822036403   -3.1763522905    0.2178511771
H       -0.4098073736   -2.1791926207   -2.1159052790
H       -2.6747525270   -2.5357451612    1.5199401160
H        1.2773749889   -3.2043171806   -0.4227658889
H        1.7368026320   -2.8062755501    1.2394893736
H        0.4578294298   -4.0063991531    0.9352230540
H        0.5311244696    2.4786799697    1.2513287512
H        1.4966912444    1.7610161518   -0.0623494596
H       -0.1955470145    2.2015042318   -0.3560553809
H       -0.4913625182   -1.8046247758    1.6467848004
H       -0.5821682707    0.3812801059    1.5427035075
25   
torsion grid (-120,)
C       -3.8106337488   -3.2784692660   -1.6835209746
C       -2.5775993198   -3.1427370639   -2.3322030699
C       -3.8690478134   -3.1750233888   -0.2911053516
C       -1.4117644697   -2.9093060230   -1.5989511959
C       -2.7006126609   -2.9381197907    0.4413223751
C       -1.4612264837   -2.8037054488   -0.1995512871
C        0.5767811831   -1.3517838508    0.1455615162
C        0.7317302346   -3.8084936495    0.6035581133
C        1.2952404787    0.9403723470    0.6987257354
C       -0.2027889090   -2.5830865620    0.6253299606
N        0.6635690456   -0.3266905092    1.0475623940
O        1.1349011752   -1.3096541228   -0.9509141411
H       -4.7154162075   -3.4612599275   -2.2577657703
H       -2.5243162137   -3.2168558393   -3.4156486232
H       -4.8202671092   -3.2775585010    0.2253859432
H       -0.4605243277   -2.7863493240   -2.1067241919
H       -2.7548928216   -2.8616484011    1.5258395149
H        1.1033489105   -3.9830673739   -0.4087911519
H        1.5926964247   -3.6524288605    1.2621464407
H        0.1904591595   -4.6990447064    0.9364721690
H        1.5623925689    1.4732595347    1.6145705708
H        2.1991058737    0.7363545458    0.1229437343
H        0.6366108183    1.5723686650    0.0906928964
H       -0.5143042713   -2.4173844065    1.6633135982
H        0.0574114617   -0.3529022346    1.8559916200
25   
torsion grid (-105,)
C       -3.8307464926   -3.4156014791   -1.7036889229
C       -2.5879743518   -3.2993510057   -2.3373145010
C       -3.9188975608   -3.2226850044   -0.3225170024
C       -1.4411181435   -2.9974190378   -1.5994310468
C       -2.7693644890   -2.9176645689    0.4145342435
C       -1.5202457855   -2.8025316604   -0.2109844061
C        0.4534780785   -1.2458381170    0.1534154987
C        0.7151290847   -3.6819927029    0.6275426189
C        1.4402799264    0.9036001733    0.8533881001
C       -0.2861828777   -2.5069247912    0.6227378763
N        0.7521169017   -0.3484957940    1.1424806694
O        0.8309523943   -1.0893971655   -1.0071965230
H       -4.7206489666   -3.6524538915   -2.2814807749
H       -2.5122404471   -3.4420146766   -3.4125461015
H       -4.8782767897   -3.3087328529    0.1817266344
H       -0.4847867220   -2.8857887157   -2.0987747190
H       -2.8468008625   -2.7706358778    1.4903709999
H        1.0929388046   -3.8650301696   -0.3813768792
H        1.5682630619   -3.4641099526    1.2786542494
H        0.2236499544   -4.5920222402    0.9842006612
H        1.9118260629    1.2751622453    1.7666104436
H        2.2073807978    0.7172195110    0.1003494995
H        0.7556633125    1.6666346628    0.4637288305
H       -0.6182604859   -2.3523940356    1.6562475257
H        0.3016854277   -0.4548256365    2.0406998307
25   
torsion grid (-90,)
C       -3.8354597130   -3.5189822077   -1.7417254285
C       -2.5873027236   -3.3869930187   -2.3614688184
C       -3.9501940546   -3.2791668693   -0.3699433398
C       -1.4622820068   -3.0220906929   -1.6186438079
C       -2.8218392085   -2.9119866769    0.3714493862
C       -1.5674434761   -2.7796622675   -0.2395623074
C        0.3455740517   -1.1348764122    0.1302161530
C        0.6878062956   -3.5558959582    0.6458150894
C        1.5790511102    0.8697988384    0.8767303595
C       -0.3583639605   -2.4186242143    0.6003711342
N        0.8673601307   -0.3739477340    1.1425381638
O        0.5228611929   -0.8556588074   -1.0539345342
H       -4.7087678512   -3.8041135598   -2.3230426843
H       -2.4907647569   -3.5654442451   -3.4296479013
H       -4.9139535833   -3.3766980120    0.1237163432
H       -0.5040259605   -2.8988932685   -2.1108638807
H       -2.9205114251   -2.7274915483    1.4397636565
H        1.0948915101   -3.7433747100   -0.3514399032
H        1.5179970331   -3.2979382045    1.3112065299
H        0.2224644058   -4.4786328206    1.0047590864
H        2.2367276327    1.0968415864    1.7197214330
H        2.1786999107    0.7453101276   -0.0260726216
H        0.8919601540    1.7099711731    0.7187544411
H       -0.7093634280   -2.2578298498    1.6271039475
H        0.5777008428   -0.5693870647    2.0907702818
25   
torsion grid (-75,)
C       -3.8158329994   -3.5979136247   -1.7762010781
C       -2.5603380504   -3.4323432261   -2.3728927871
C       -3.9670237947   -3.3462689384   -0.4102353925
C       -1.4642881577   -3.0216600204   -1.6116305936
C       -2.8663623982   -2.9339695996    0.3490480389
C       -1.6051692954   -2.7680795834   -0.2380909609
C        0.2439804544   -1.0544568199    0.1536827996
C        0.6442778024   -3.4785072091    0.7029121286
C        1.6826767669    0.8217846507    0.8684866357
C       -0.4241991640   -2.3627644860    0.6184279142
N        0.9910956828   -0.4356118242    1.1223360388
O        0.1955162116   -0.6319846787   -0.9989023710
H       -4.6674153202   -3.9173789962   -2.3717121659
H       -2.4365329692   -3.6185346226   -3.4369024153
H       -4.9372556518   -3.4689605759    0.0647630725
H       -0.5014489749   -2.8735318761   -2.0885372715
H       -2.9928036940   -2.7391984215    1.4125937792
H        1.0811306600   -3.6700970231   -0.2813979870
H        1.4544173014   -3.2037018311    1.3852741117
H        0.1868403261   -4.4069880896    1.0569687400
H        2.5028563338    0.9333835122    1.5823954037
H        2.0865629065    0.8023435082   -0.1446882100
H        1.0112044871    1.6850608049    0.9529546111
H       -0.7987648029   -2.1950647890    1.6362580907
H        0.8849224030   -0.7398917437    2.0804374131
25   
torsion grid (-60,)
C       -3.7736588734   -3.6386288022   -1.8100825949
C       -2.5138647109   -3.4104792496   -2.3768737551
C       -3.9649191090   -3.4110251200   -0.4451447210
C       -1.4548653194   -2.9621258429   -1.5858923678
C       -2.8999432460   -2.9616882206    0.3438797582
C       -1.6355040347   -2.7344198654   -0.2129584328
C        0.1514163936   -0.9710081687    0.2195985522
C        0.5813997807   -3.4150081719    0.7978836818
C        1.7527171153    0.8015766644    0.8408828356
C       -0.4856572176   -2.3019432480    0.6720968311
N        1.1089843405   -0.4853466130    1.0726801440
O       -0.1290390319   -0.3981718689   -0.8299101663
H       -4.5975490982   -3.9861689873   -2.4283771261
H       -2.3592948558   -3.5758361597   -3.4402680069
H       -4.9393083628   -3.5805342913    0.0063172307
H       -0.4891288211   -2.7662832585   -2.0411034919
H       -3.0578749483   -2.7852609368    1.4063780150
H        1.0632856482   -3.6007140008   -0.1665245028
H        1.3632171723   -3.1570251285    1.5187098059
H        0.1084726994   -4.3461080931    1.1231366689
H        2.6916989803    0.8393222631    1.3989343557
H        1.9625504855    0.9053064295   -0.2246590955
H        1.1168665990    1.6413506514    1.1471815019
H       -0.8913767629   -2.1246805582    1.6767641090
H        1.2059107053   -0.9112987017    1.9840663182
25   
torsion grid (-45,)
C       -3.7108332610   -3.6701482308   -1.8515285415
C       -2.4538138061   -3.3576391692   -2.3835769735
C       -3.9437375921   -3.4935957777   -0.4855660951
C       -1.4388487701   -2.8767348004   -1.5553781926
C       -2.9225037010   -3.0117890498    0.3413847786
C       -1.6620498411   -2.7010999139   -0.1814408717
C        0.0682518958   -0.9060581986    0.2985379774
C        0.5021121369   -3.3735153814    0.9146983610
C        1.8211004448    0.7678416476    0.7592028859
C       -0.5469894709   -2.2510146109    0.7413685828
N        1.2035464495   -0.5352897184    0.9708531451
O       -0.4165352917   -0.2012486928   -0.5830566287
H       -4.5014537244   -4.0421257760   -2.4983198518
H       -2.2681795692   -3.4822087553   -3.4475507461
H       -4.9175875675   -3.7271269497   -0.0624257266
H       -0.4747442489   -2.6159780490   -1.9828152499
H       -3.1123778211   -2.8743125972    1.4043814660
H        1.0530564197   -3.5413423924   -0.0152409142
H        1.2295757709   -3.1560573635    1.7041055464
H       -0.0005746532   -4.3074007320    1.1812589426
H        2.8582890215    0.7331092919    1.1018869411
H        1.8007789690    1.0020335037   -0.3061584328
H        1.2908853720    1.5654978608    1.2938805842
H       -0.9909581778   -2.0579880386    1.7268723373
H        1.5012840612   -1.0825007778    1.7655287890
25   
torsion grid (-30,)
C       -3.5421119669   -2.9466749736   -1.9279415771
C       -2.2087740398   -3.0242104504   -2.3484411401
C       -3.8330406482   -2.4654640421   -0.6490969366
C       -1.1770429010   -2.6283663126   -1.4960580255
C       -2.7941312263   -2.0702053361    0.2012222611
C       -1.4587196083   -2.1479724220   -0.2087904373
C        0.6186250560   -0.7507190577    0.1293011154
C        0.3455386239   -3.0704744350    1.2738659366
C        2.8830679293    0.2190458244    0.1359428456
C       -0.3385738093   -1.7893653966    0.7500802469
N        1.8899430141   -0.7228761435    0.6369263184
O        0.2443128532    0.0591899125   -0.7158178863
H       -4.3449227700   -3.2523352827   -2.5940915515
H       -1.9748436653   -3.3873624341   -3.3461250975
H       -4.8647352486   -2.3932133651   -0.3138437770
H       -0.1472415601   -2.6740997377   -1.8421890400
H       -3.0281764457   -1.6912786226    1.1942395542
H        0.9127717766   -3.5713774573    0.4828071004
H        1.0168128371   -2.8720206492    2.1177762277
H       -0.4136410139   -3.7722637803    1.6293726576
H        3.3034282381   -0.1021131602   -0.8248726741
H        2.4120269881    1.1925400197   -0.0088728519
H        3.6894927653    0.3116068025    0.8676103545
H       -0.7856853795   -1.2742711215    1.6094219633
H        2.2017051362   -1.4807240006    1.2254248363
25   
torsion grid (-15,)
C       -3.4454176909   -2.9393014307   -1.9707253500
C       -2.0957252740   -2.9966082436   -2.3382432009
C       -3.7933665289   -2.4784146715   -0.6983993520
C       -1.1066196258   -2.6003897366   -1.4366603891
C       -2.7967918602   -2.0816497384    0.2002490953
C       -1.4453285625   -2.1394947773   -0.1560086708
C        0.5686030666   -0.6929868723    0.2515633653
C        0.3333245618   -3.0411251017    1.3694182560
C        2.8682514098    0.1534429863    0.0143231233
C       -0.3619168372   -1.7702095571    0.8431519317
N        1.9032034980   -0.8103404300    0.5284922026
O        0.1190522229    0.2624027124   -0.3779759356
H       -4.2170946043   -3.2446630266   -2.6727637622
H       -1.8164267217   -3.3441588258   -3.3298291329
H       -4.8389152837   -2.4219482326   -0.4058473871
H       -0.0618898647   -2.6335572443   -1.7390160026
H       -3.0756288561   -1.7157145713    1.1863199868
H        0.8839616428   -3.5560937452    0.5749101421
H        1.0194388888   -2.8245111513    2.1966813551
H       -0.4173264201   -3.7408111905    1.7469428898
H        3.0969871249   -0.0225028341   -1.0437539238
H        2.4548887661    1.1589019755    0.1085810970
H        3.7896964095    0.0833733886    0.5975745755
H       -0.8451468048   -1.2717346453    1.6915933658
H        2.2485328763   -1.6639375651    0.9409157199
25   
torsion grid (0,)
C       -3.3600637410   -2.9157370006   -2.0168420421
C       -1.9953595635   -2.9879329524   -2.3200049031
C       -3.7621141152   -2.4518248561   -0.7615039522
C       -1.0450322235   -2.6047628143   -1.3717928724
C       -2.8052476887   -2.0668636364    0.1840014859
C       -1.4390226415   -2.1416154589   -0.1075558222
C        0.5099002913   -0.6518848673    0.3886589350
C        0.3200973199   -3.0307163457    1.4546850843
C        2.7963208732    0.1118064340   -0.1110389491
C       -0.3965577378   -1.7705789045    0.9359183351
N        1.8585933935   -0.8740789892    0.4114174431
O        0.0320439005    0.4098936986   -0.0066837798
H       -4.1011864646   -3.2120068197   -2.7547581150
H       -1.6735871290   -3.3381567765   -3.2976805204
H       -4.8196358211   -2.3837829429   -0.5187316050
H        0.0127308373   -2.6527591546   -1.6237100167
H       -3.1256409339   -1.6966271794    1.1554102872
H        0.8598251253   -3.5498768437    0.6547957423
H        1.0205954110   -2.7972839447    2.2645147828
H       -0.4168013006   -3.7369288145    1.8475033886
H        2.8387888284    0.0927037219   -1.2066142846
H        2.4771845432    1.1086055466    0.1980280001
H        3.7916859845   -0.0921508141    0.2910634252
H       -0.9179980059   -1.3016601913    1.7768815941
H        2.2051794143   -1.7891563089    0.6577244499
25   
torsion grid (15,)
C       -3.2771348136   -2.8915029521   -2.0599604731
C       -1.9022455409   -2.9645963863   -2.3113388668
C       -3.7266618705   -2.4420788412   -0.8152866176
C       -0.9885131357   -2.5962197056   -1.3217283815
C       -2.8065313996   -2.0716229487    0.1712408044
C       -1.4295593442   -2.1475917306   -0.0674053675
C        0.4722167393   -0.6388545531    0.5183276757
C        0.2941617779   -3.0302523255    1.5481956210
C        2.7082052281    0.0518211817   -0.2495999115
C       -0.4302642580   -1.7790775886    1.0201716850
N        1.7852488623   -0.9398532045    0.2875371824
O        0.0217366654    0.4929712171    0.3497460076
H       -3.9899064587   -3.1763421430   -2.8295572361
H       -1.5435066232   -3.3040074169   -3.2799428148
H       -4.7926010604   -2.3739910191   -0.6128013122
H        0.0776275126   -2.6450543800   -1.5340740837
H       -3.1630666679   -1.7115287379    1.1336168603
H        0.8146844762   -3.5716178442    0.7499825931
H        1.0151029544   -2.7783578627    2.3335629970
H       -0.4362440161   -3.7263204432    1.9707426942
H        2.6025415238    0.1587964718   -1.3358016415
H        2.4987964514    1.0198977142    0.2085729309
H        3.7331006579   -0.2467454536   -0.0159068753
H       -0.9879377133   -1.3285464309    1.8461957846
H        2.0988149594   -1.8939433863    0.3869373169
25   
torsion grid (30,)
C       -3.1911615222   -2.7089116192   -2.0444116681
C       -2.1158836585   -3.5832660633   -1.8752706202
C       -3.3453207334   -1.6324507311   -1.1622667227
C       -1.2008393143   -3.3842129764   -0.8337894923
C       -2.4329375656   -1.4361345643   -0.1248635186
C       -1.3466651389   -2.3101031671    0.0544320941
C        0.3309796627   -0.6945132300    0.9238476188
C        0.5941024352   -3.2054759653    1.4903976549
C        2.2503102388    0.4760229977   -0.0709622635
C       -0.3614436050   -2.0434866860    1.1945481781
N        1.5734443530   -0.7413649783    0.3601699364
O       -0.2156270585    0.3702098845    1.2136543043
H       -3.9026523240   -2.8638511903   -2.8515260150
H       -1.9865092157   -4.4253306801   -2.5508431778
H       -4.1785108898   -0.9445869342   -1.2832373682
H       -0.3797324138   -4.0852385491   -0.7206815321
H       -2.5446905093   -0.5899495908    0.5470031971
H        1.2229270751   -3.4784028064    0.6361464065
H        1.2572410610   -2.9538828997    2.3230511508
H        0.0271301592   -4.1000439650    1.7653136332
H        1.8050843750    0.8873471696   -0.9847510722
H        2.1697699887    1.2286205497    0.7151006056
H        3.3046304814    0.2530261450   -0.2508320409
H       -0.9503202868   -1.8521327444    2.0964316929
H        1.9099398619   -1.6264137518    0.0087459789
25   
torsion grid (45,)
C       -3.7826958070   -2.8157253642   -1.7845183805
C       -2.7716368012   -3.7766724672   -1.8452263289
C       -3.6137800180   -1.6899141108   -0.9687602161
C       -1.5976362790   -3.6147447837   -1.0985020584
C       -2.4439039542   -1.5314298343   -0.2251280587
C       -1.4186919632   -2.4919241991   -0.2794076684
C        0.5167536707   -0.9640185891    0.0184820229
C        0.8089573982   -3.4516772688    0.5962466598
C        1.8459093032    0.0685714124   -1.7764816928
C       -0.1465969624   -2.2535918272    0.5337215913
N        1.3134927466   -1.0988584664   -1.0843649159
O        0.3366531752    0.1190750965    0.5749518099
H       -4.6942669141   -2.9419885795   -2.3629592681
H       -2.8939973732   -4.6576287050   -2.4706497780
H       -4.3950251007   -0.9359744229   -0.9123030011
H       -0.8316360465   -4.3821516157   -1.1547178909
H       -2.3104116296   -0.6509521379    0.3984003535
H        1.1703754337   -3.7674396126   -0.3874429357
H        1.6854701333   -3.2045377472    1.2019421282
H        0.3106147072   -4.3123713818    1.0530635442
H        1.0864391778    0.5568734543   -2.3997457501
H        2.1941112551    0.7891223929   -1.0354611304
H        2.6860214353   -0.2379998423   -2.4045921566
H       -0.4459152240   -2.0006905923    1.5544004551
H        1.2544713022   -1.9664068464   -1.6006706735
25   
torsion grid (60,)
C       -3.6949670427   -2.8080874517   -1.8518527751
C       -2.6789788972   -3.7652813471   -1.8795162304
C       -3.5601769032   -1.6863892706   -1.0236676974
C       -1.5337124256   -3.6036767358   -1.0887075236
C       -2.4187816505   -1.5284316960   -0.2373635902
C       -1.3877839445   -2.4842537230   -0.2583758851
C        0.5746065593   -0.9750137620    0.0753533499
C        0.8117810034   -3.4296983063    0.7014797001
C        1.7175660587    0.0608220023   -1.8425196194
C       -0.1454342360   -2.2344535258    0.5909962478
N        1.1450100017   -1.0948099846   -1.1631416838
O        0.6528611723    0.0528116496    0.7468843102
H       -4.5841851575   -2.9340174217   -2.4640708377
H       -2.7756311712   -4.6436636198   -2.5129409224
H       -4.3463038581   -0.9361770276   -0.9912038267
H       -0.7630936970   -4.3681866781   -1.1183642699
H       -2.3152070589   -0.6520913407    0.3987244830
H        1.2245722294   -3.7293728009   -0.2661469356
H        1.6546178967   -3.1738671507    1.3500579601
H        0.2989295221   -4.2944160117    1.1343830143
H        0.9440182294    0.7107415714   -2.2707167734
H        2.2926414830    0.6437157411   -1.1220673183
H        2.3813310352   -0.2830846344   -2.6397471323
H       -0.4712371206   -1.9584463063    1.5970674631
H        0.8335891627   -1.8684641920   -1.7372532926
25   
torsion grid (75,)
C       -3.6421692911   -2.8591896315   -1.8753209042
C       -2.5949268561   -3.7818804584   -1.9164707169
C       -3.5565060967   -1.7613081200   -1.0097389378
C       -1.4680727926   -3.6089815336   -1.1022262695
C       -2.4321433238   -1.5921081555   -0.2012031346
C       -1.3693450713   -2.5117021073   -0.2350370328
C        0.6507072553   -1.0348760911    0.1065019111
C        0.7965049878   -3.4473916368    0.8028999127
C        1.6782316096    0.0168483724   -1.8686473972
C       -0.1459008749   -2.2451559845    0.6310582468
N        0.9930388328   -1.0914199775   -1.2165605376
O        1.0111645344   -0.1236314431    0.8503534662
H       -4.5175246474   -2.9940168711   -2.5053092082
H       -2.6532633326   -4.6423495063   -2.5784696157
H       -4.3675527988   -1.0387727650   -0.9654612917
H       -0.6718432277   -4.3462676504   -1.1429387802
H       -2.3694238952   -0.7340353457    0.4649917062
H        1.2471609148   -3.7553303035   -0.1448531878
H        1.6105080780   -3.1839924970    1.4841908246
H        0.2594430328   -4.3027727755    1.2248717880
H        0.9935765120    0.8405582852   -2.1068809414
H        2.4505591558    0.3981256531   -1.1992589208
H        2.1440894476   -0.3408860546   -2.7903204185
H       -0.4871673392   -1.9304699195    1.6204740307
H        0.4754478102   -1.7382924522   -1.7987713031
25   
torsion grid (90,)
C       -3.6515512694   -2.9270367292   -1.9913294802
C       -2.5681038676   -3.8066395253   -2.0469207921
C       -3.5929099322   -1.8173156064   -1.1389170112
C       -1.4317729488   -3.5797271910   -1.2599617316
C       -2.4578705966   -1.5946252668   -0.3583592708
C       -1.3583386933   -2.4694193374   -0.4061714244
C        0.7011225642   -0.9869390323   -0.1611280499
C        0.8141327753   -3.3361396525    0.6760013907
C        1.5406235038    0.0924873225   -2.2088351967
C       -0.1284682055   -2.1457734321    0.4265720432
N        0.7972025927   -0.9549814487   -1.5225275359
O        1.3019379167   -0.1978976049    0.5680581752
H       -4.5342750333   -3.1046423548   -2.6000240416
H       -2.6053344749   -4.6753416322   -2.6995798354
H       -4.4319988998   -1.1284154028   -1.0828581600
H       -0.6049122636   -4.2814609377   -1.3134260720
H       -2.4166848989   -0.7279474404    0.2984608843
H        1.2698223303   -3.6957322707   -0.2513834232
H        1.6217267081   -3.0290180672    1.3454871920
H        0.2740409083   -4.1667865983    1.1410874052
H        0.9685204302    1.0263711933   -2.2723050134
H        2.4615212696    0.2941075659   -1.6593842245
H        1.7879982512   -0.2452856233   -3.2183033384
H       -0.4616798496   -1.7699981301    1.3978986984
H        0.1443957585   -1.5160273412   -2.0545685769
25   
torsion grid (105,)
C       -3.6280497592   -2.9538913703   -1.9960097006
C       -2.5016217005   -3.7745682662   -2.1005228677
C       -3.6194588906   -1.8875491555   -1.0893280406
C       -1.3746391438   -3.5307115773   -1.3071471221
C       -2.4914269230   -1.6473185651   -0.3018630706
C       -1.3505461847   -2.4618835009   -0.3973952660
C        0.7821697648   -1.0492981214   -0.1803315801
C        0.7480174056   -3.3394210343    0.8065506437
C        1.5160726556    0.1027728208   -2.2272675143
C       -0.1295403588   -2.1278931308    0.4408731595
N        0.7081392166   -0.8894525113   -1.5321059479
O        1.5751173818   -0.4194623876    0.5205792441
H       -4.5046181393   -3.1449090453   -2.6095063950
H       -2.4991370496   -4.6092986109   -2.7970910456
H       -4.4915997473   -1.2455006434   -0.9950493239
H       -0.5116841499   -4.1832631589   -1.4004692666
H       -2.4906981734   -0.8140042373    0.3979295447
H        1.2253136943   -3.7766130654   -0.0757280598
H        1.5393284623   -3.0220514246    1.4893618758
H        0.1489615111   -4.1147613279    1.2938790907
H        1.0919081954    1.1101633834   -2.1365758705
H        2.5180738283    0.1155509571   -1.7950091950
H        1.5804101296   -0.1646166058   -3.2848484406
H       -0.4743613517   -1.6762765791    1.3760429429
H       -0.0500193340   -1.3405109450   -2.0266706742
25   
torsion grid (120,)
C       -3.6018039913   -2.9891424367   -1.9962994409
C       -2.4232438686   -3.7212702288   -2.1756144232
C       -3.6456102729   -1.9866190640   -1.0223166394
C       -1.2996667706   -3.4520308200   -1.3885366323
C       -2.5181254708   -1.7202300171   -0.2395519866
C       -1.3282634116   -2.4455437568   -0.4084808209
C        0.8867380180   -1.1339737361   -0.2457563680
C        0.6674247597   -3.3303678940    0.9361998995
C        1.5289214810    0.1012555711   -2.2717517636
C       -0.1101521533   -2.1017843874    0.4283058789
N        0.6774033489   -0.8414716665   -1.5598224411
O        1.8365892192   -0.6759328976    0.3909762161
H       -4.4763394539   -3.2001929835   -2.6061233954
H       -2.3790015529   -4.5049760330   -2.9278120649
H       -4.5566592889   -1.4132800228   -0.8706661774
H       -0.3932009386   -4.0305719682   -1.5427378498
H       -2.5600037725   -0.9365904172    0.5140997772
H        1.1070670617   -3.9002070514    0.1120060673
H        1.4808137993   -3.0036151643    1.5870991761
H        0.0033632720   -3.9954888931    1.4962032074
H        1.2628932212    1.1410071708   -2.0460433960
H        2.5668078040   -0.0563249392   -1.9732690065
H        1.4302148065   -0.0685829625   -3.3466473841
H       -0.4545928222   -1.5493266922    1.3091300867
H       -0.1765583423   -1.1626274163   -1.9955279138
25   
torsion grid (135,)
C       -3.5832364024   -3.0322643266   -1.9912630775
C       -2.3757947319   -3.7054499680   -2.2112306809
C       -3.6557119670   -2.0622943668   -0.9874445702
C       -1.2534217304   -3.4098352553   -1.4338659666
C       -2.5278742148   -1.7692922309   -0.2130125488
C       -1.3115050962   -2.4361280923   -0.4215529317
C        0.9620890982   -1.2194059598   -0.3114172644
C        0.5955099673   -3.3167354027    1.0293528333
C        1.5228369507    0.1241443522   -2.2979267471
C       -0.0929948754   -2.0863801573    0.4113631512
N        0.6355248926   -0.7547165901   -1.5495374283
O        2.0360189430   -0.9546978428    0.2310432232
H       -4.4571524202   -3.2635126929   -2.5946297618
H       -2.3090473180   -4.4617797092   -2.9893279880
H       -4.5883872870   -1.5343631624   -0.8054351216
H       -0.3218772575   -3.9374164420   -1.6207595425
H       -2.5924977092   -1.0115182562    0.5650861728
H        1.0019680644   -3.9787210836    0.2588898273
H        1.4233029377   -2.9955256046    1.6640323776
H       -0.1202953039   -3.8882302643    1.6274870375
H        1.4095655206    1.1713630058   -1.9925856509
H        2.5573624612   -0.1728711530   -2.1171143629
H        1.2999703216    0.0370681820   -3.3642296681
H       -0.4275893246   -1.4512970637    1.2403641499
H       -0.2781140911   -0.9721040048   -1.9232532504
25   
torsion grid (150,)
C       -3.7232767714   -2.6628268141   -1.4761864478
C       -2.5215065905   -2.4726567671   -2.1693545654
C       -3.7146491060   -2.6847275379   -0.0789738698
C       -1.3248713021   -2.3071951500   -1.4690505957
C       -2.5122338877   -2.5167114486    0.6175359360
C       -1.3015213364   -2.3273312388   -0.0633725264
C        0.5924688325   -0.7124675498    0.5886683411
C        1.0609887949   -3.1816866987    0.3320505538
C        0.1446149896    1.6693957938    0.1284830854
C       -0.0036022809   -2.1345431369    0.6980757777
N       -0.2794241119    0.2823856237    0.2560198157
O        1.7743558783   -0.4918845102    0.8543925703
H       -4.6548152538   -2.7928607677   -2.0207804049
H       -2.5182902307   -2.4527346785   -3.2563165959
H       -4.6412255045   -2.8325294069    0.4699790044
H       -0.3998165834   -2.1536679948   -2.0194577036
H       -2.5143480894   -2.5326606161    1.7054368308
H        1.3352724092   -3.1181497270   -0.7250233855
H        1.9645186658   -3.0168267300    0.9215719980
H        0.6784741992   -4.1882696066    0.5252410873
H       -0.7170304162    2.3248375159    0.2786053602
H        0.8988362406    1.8823830403    0.8876225010
H        0.5826779722    1.8738039434   -0.8562530298
H       -0.2246826088   -2.2484356361    1.7668906755
H       -1.2045950974    0.0224546397   -0.0580881061
25   
torsion grid (165,)
C       -3.6887267128   -2.6962375359   -1.5059241153
C       -2.4851419925   -2.4644743516   -2.1838878504
C       -3.6939725843   -2.7413946028   -0.1095255445
C       -1.3003389422   -2.2807461646   -1.4692100681
C       -2.5027608261   -2.5558926298    0.6025797104
C       -1.2920540876   -2.3250907899   -0.0643123029
C        0.6137089695   -0.7190795149    0.4870629395
C        1.0373073325   -3.2136955289    0.4180860815
C        0.1394239095    1.6754803862    0.1544061044
C       -0.0005472927   -2.1194642759    0.7063332011
N       -0.2871617073    0.3050061491    0.4010712782
O        1.8294688624   -0.5319145037    0.4621192820
H       -4.6114052356   -2.8392402476   -2.0622500598
H       -2.4724240994   -2.4253158928   -3.2702510803
H       -4.6221593968   -2.9210759065    0.4270825151
H       -0.3727057877   -2.0928900747   -2.0051415439
H       -2.5145510489   -2.5922394536    1.6900548966
H        1.3289284828   -3.2139423050   -0.6357884306
H        1.9388516152   -3.0464731530    1.0104475930
H        0.6203245127   -4.1959271188    0.6597140585
H       -0.6512357936    2.3601953989    0.4712228150
H        1.0434380368    1.8765683985    0.7311955178
H        0.3633480062    1.8512176818   -0.9052547946
H       -0.2417732362   -2.1569871615    1.7763939616
H       -1.2589203349    0.0663688313    0.2517751931
25   
torsion grid (180,)
C       -3.6714233834   -2.7076508994   -1.5556692059
C       -2.4668242290   -2.4414261484   -2.2191436271
C       -3.6894630392   -2.7675724150   -0.1599852312
C       -1.2932248405   -2.2383008017   -1.4915841523
C       -2.5097865166   -2.5624682331    0.5660488161
C       -1.2993376660   -2.2974075728   -0.0877345474
C        0.6111952713   -0.7078834175    0.3617248868
C        0.9996946944   -3.2076500423    0.4816347468
C        0.1627119969    1.7046359195    0.1400465136
C       -0.0155750533   -2.0775769302    0.6950752713
N       -0.2328759445    0.3570047808    0.5269493494
O        1.7837387829   -0.5759883676    0.0157744709
H       -4.5851971296   -2.8655366408   -2.1226236875
H       -2.4448228360   -2.3905159004   -3.3048828697
H       -4.6185474607   -2.9745244086    0.3652015923
H       -0.3636233150   -2.0240346783   -2.0143329807
H       -2.5306150935   -2.6139445759    1.6529696301
H        1.3010957497   -3.2704824580   -0.5668343357
H        1.9005582171   -3.0311562177    1.0737758199
H        0.5573939584   -4.1648737237    0.7738633352
H       -0.4773767069    2.4284054463    0.6508103991
H        1.1992719346    1.8683154058    0.4377638601
H        0.0882779422    1.8601222752   -0.9437962549
H       -0.2757867385   -2.0433318796    1.7603289523
H       -1.2219980301    0.1545938518    0.6018095685
