10   
torsion grid (-165,)
C        0.0270039612    0.7814266092    1.8250573101
C        0.0003817469    0.1508784640   -1.5815823920
O        0.5834488459    0.7699555394    0.5552126260
O       -0.5383072453    0.5059322926   -0.3677021715
F       -0.2278946112   -0.4958251293    2.2940579954
F        0.7901289163    1.1305508006   -2.0991745390
F        0.7579198535   -0.9728903732   -1.5052284666
H        0.8049755980    1.2345125763    2.4465002597
H       -0.9125261240    1.3399131153    1.8468534282
H       -0.8605957828   -0.0191130048   -2.2340995402
10   
torsion grid (-150,)
C        0.0276185089    0.7706182371    1.8057717566
C       -0.0041884358    0.1548094934   -1.5568085505
O        0.5562699340    0.9372656409    0.5335154389
O       -0.5504758772    0.6642817395   -0.4012539843
F       -0.0969676506   -0.5648416835    2.1465535611
F        0.8762826527    1.0183249811   -2.1308399115
F        0.6585123709   -1.0109255492   -1.3478692235
H        0.7724916969    1.2329525307    2.4601905354
H       -0.9593128406    1.2323931913    1.8937801158
H       -0.8556952005   -0.0095376915   -2.2231452280
10   
torsion grid (-135,)
C        0.0324426432    0.7561572089    1.7737983795
C       -0.0120119909    0.1604524217   -1.5201303488
O        0.5235657714    1.0952124539    0.5184492953
O       -0.5584763197    0.8176464516   -0.4387948577
F        0.0363712814   -0.6110768776    1.9831205957
F        0.9501543727    0.9003280137   -2.1329330437
F        0.5512826342   -1.0247659836   -1.1773610916
H        0.7425837689    1.2207508742    2.4643612705
H       -0.9910143964    1.1138990962    1.9125357489
H       -0.8503626062   -0.0032627693   -2.2031514380
10   
torsion grid (-120,)
C        0.0392725940    0.7381903161    1.7338917788
C       -0.0218539307    0.1674298311   -1.4774267869
O        0.4846964114    1.2405203563    0.5135283094
O       -0.5573792579    0.9613850419   -0.4821229951
F        0.1961429358   -0.6310310390    1.8309758671
F        1.0286309798    0.7687966223   -2.0956822744
F        0.4160411372   -1.0288206258   -1.0160762687
H        0.6969535106    1.2190036017    2.4643453946
H       -1.0168228473    0.9682597368    1.8957850709
H       -0.8411463744    0.0216070486   -2.1873235854
10   
torsion grid (-105,)
C        0.1578410030    0.4858794914    1.6934147663
C       -0.3947887184    0.8675120677   -1.3466753510
O       -0.7987909879    0.0763232744    0.7707414192
O       -0.1092246964   -0.2010616161   -0.4856337070
F        0.5553236207    1.8011489432    1.4634842588
F        0.4391161059    0.6859848928   -2.3947009721
F       -1.6730539765    0.7926428026   -1.8001373823
H       -0.3583307217    0.4430105335    2.6561465359
H        1.0518070616   -0.1398550029    1.6515634126
H       -0.2359726289    1.8404921055   -0.8810752886
10   
torsion grid (-90,)
C        0.1377952518    0.5051366417    1.6516177293
C       -0.3557595030    0.8539194068   -1.3057231805
O       -0.8095737162   -0.0431778083    0.7942185710
O       -0.1970497074   -0.2912769005   -0.5067726870
F        0.3296567133    1.8673226469    1.4179485184
F        0.4149618660    0.6024859644   -2.3876159149
F       -1.6441603956    0.9778785235   -1.7162846081
H       -0.3017958515    0.3903705960    2.6457605705
H        1.1082753742    0.0150129390    1.5462396922
H       -0.0484239703    1.7744054826   -0.8122609991
10   
torsion grid (-75,)
C        0.1015816186    0.5286764002    1.6137378302
C       -0.2979636142    0.8335515431   -1.2717524253
O       -0.7965137317   -0.1597536655    0.8084884690
O       -0.2562992337   -0.3616415674   -0.5324268898
F        0.0417761688    1.9089866604    1.4141608535
F        0.3237780074    0.5069141919   -2.4272005049
F       -1.5779326695    1.1855313046   -1.5508704602
H       -0.2391361467    0.3242207854    2.6318371799
H        1.1322801786    0.2126165413    1.4330865259
H        0.2023554838    1.6729752982   -0.7919328863
10   
torsion grid (-60,)
C        0.4564097184    0.6676950288    1.5032996529
C       -0.3070760250    0.2166598658   -1.2858745066
O       -0.1191455543   -0.5049793374    1.0083588500
O        0.1452077610   -0.7566019143   -0.4150140483
F       -0.3545716709    1.7710067523    1.3193464507
F       -1.5912274315    0.5730825522   -1.0627120003
F        0.4460429275    1.3563319525   -1.2427176971
H        0.5196287480    0.4743506670    2.5785769970
H        1.4284327837    0.8703153905    1.0494993144
H       -0.1991660983   -0.2425200674   -2.2728685028
10   
torsion grid (-45,)
C        0.4421399515    0.6748134284    1.4876199797
C       -0.2945691485    0.2176952188   -1.2732402043
O       -0.0392992804   -0.5531657854    1.0308161537
O        0.0725023319   -0.8011667261   -0.4209272588
F       -0.4724798389    1.6979411130    1.3338711615
F       -1.5418589663    0.6893748857   -1.0457456908
F        0.5563441450    1.2883655907   -1.2300849419
H        0.5643130148    0.4878947345    2.5594009338
H        1.3737682080    0.9681643090    1.0013758483
H       -0.2363252584   -0.2445758786   -2.2631914711
10   
torsion grid (-30,)
C        0.4254834026    0.6846153151    1.4848184298
C       -0.2810866779    0.2141305342   -1.2740889949
O        0.0392147863   -0.5807585016    1.0419458333
O       -0.0016964331   -0.8269395379   -0.4210347480
F       -0.5872351981    1.6191977747    1.3997233024
F       -1.4756752193    0.8084058423   -1.0432984486
F        0.6670405716    1.2030133422   -1.2538104887
H        0.6232690740    0.4902132984    2.5443820471
H        1.2974934887    1.0758323273    0.9603696374
H       -0.2822726362   -0.2623695048   -2.2591120599
10   
torsion grid (-15,)
C        0.3749048260    0.6996224191    1.4868834722
C       -0.2394299435    0.2047346566   -1.2846054222
O        0.0975103332   -0.5923301900    1.0405049210
O       -0.0594500888   -0.8426955808   -0.4189695007
F       -0.7528773549    1.4936362660    1.5754860866
F       -1.3191353382    0.9750548419   -1.0081713493
F        0.8420394481    1.0499001620   -1.3426398782
H        0.7295596682    0.5014342084    2.5042043384
H        1.1152049228    1.2215799350    0.8819303166
H       -0.3637913144   -0.2855958283   -2.2547284743
10   
torsion grid (0,)
C        0.3256370132    0.7130338689    1.4765583410
C       -0.1998141773    0.1977074000   -1.2827528695
O        0.1551843970   -0.5979521721    1.0319341261
O       -0.1183061267   -0.8528433906   -0.4095011843
F       -0.8754305064    1.3515759203    1.7262136367
F       -1.1441849683    1.1173000673   -0.9591750904
F        0.9851653150    0.8837951936   -1.4059621662
H        0.8268594808    0.5516740124    2.4370678524
H        0.9138455696    1.3355928752    0.8039546209
H       -0.4444208383   -0.2745428851   -2.2384427567
10   
torsion grid (15,)
C        0.3008621559    0.7204987201    1.4707223493
C       -0.1797707652    0.1954206828   -1.2803199877
O        0.2257166635   -0.5955074712    1.0139818276
O       -0.1863900979   -0.8453427072   -0.3923419679
F       -0.9380400008    1.2417567403    1.7945520000
F       -1.0355417897    1.2032949348   -0.9574950032
F        1.0588694478    0.7691227807   -1.4200661177
H        0.8703528041    0.5915088911    2.3975125299
H        0.7913449137    1.4049188053    0.7802746388
H       -0.4828681728   -0.2603304868   -2.2269257592
10   
torsion grid (30,)
C        0.2846592538    0.7263506664    1.4718127858
C       -0.1668398025    0.1934741276   -1.2824939330
O        0.2988888426   -0.5821454693    0.9857307929
O       -0.2561543118   -0.8211318159   -0.3671641602
F       -0.9791384870    1.1354337208    1.8513239317
F       -0.9443707303    1.2742508116   -0.9811185745
F        1.1091332871    0.6643982610   -1.4291594810
H        0.9031132304    0.6248423018    2.3702177995
H        0.6874941594    1.4636289413    0.7790999549
H       -0.5122502831   -0.2537606554   -2.2183546060
10   
torsion grid (45,)
C        0.2687297992    0.7324027057    1.4842141696
C       -0.1539185413    0.1903673414   -1.2946770508
O        0.3656116510   -0.5544354360    0.9478331059
O       -0.3238680587   -0.7777335100   -0.3373698631
F       -1.0057772888    1.0196642816    1.9309427971
F       -0.8449146601    1.3417495290   -1.0290313436
F        1.1513179210    0.5508147957   -1.4544423666
H        0.9386221661    0.6553522448    2.3473512140
H        0.5723019616    1.5221446317    0.7986861716
H       -0.5435697916   -0.2549856939   -2.2136123239
10   
torsion grid (60,)
C        0.2422732549    0.7421509959    1.5135312752
C       -0.1321354296    0.1836760469   -1.3230538077
O        0.4185882303   -0.5056882625    0.9056992295
O       -0.3810533674   -0.7123922485   -0.3099674768
F       -1.0187400393    0.8805312733    2.0579872182
F       -0.7091749091    1.4097341793   -1.1071655900
F        1.1943501532    0.4090193028   -1.5115900240
H        0.9781138340    0.6975375916    2.3233436546
H        0.4130183856    1.5841439686    0.8447848726
H       -0.5807049541   -0.2633719576   -2.2136748416
10   
torsion grid (75,)
C        0.1986824595    0.7586315907    1.5573680955
C       -0.1016003835    0.1746609889   -1.3645312547
O        0.4732418773   -0.4244537382    0.8608361306
O       -0.4094236202   -0.6319166657   -0.2921028317
F       -1.0016056891    0.6848212902    2.2386789306
F       -0.4712463041    1.4838623319   -1.1784058573
F        1.2242650222    0.1875732191   -1.6486733780
H        1.0169773159    0.7885047522    2.2842242712
H        0.1688492531    1.6411269553    0.9220854384
H       -0.6736047726   -0.2374698346   -2.1995850345
10   
torsion grid (90,)
C        0.1259562971    0.7754919696    1.5971979010
C       -0.0503288936    0.1689938214   -1.4022781592
O        0.5271842668   -0.3139132200    0.8156381579
O       -0.4157867410   -0.5442401186   -0.2819819627
F       -0.9370855106    0.4436214808    2.4190169543
F       -0.1111280736    1.5256440072   -1.2196310348
F        1.2151393553   -0.1054478616   -1.8047659209
H        1.0055733333    0.9608467782    2.2217703929
H       -0.1654986807    1.6405038925    1.0056474720
H       -0.7694901944   -0.1261598596   -2.1707192904
10   
torsion grid (105,)
C        0.0918685247    0.7844493474    1.6380202217
C       -0.0287789920    0.1622004723   -1.4384517933
O        0.5753644205   -0.1897512516    0.7621401540
O       -0.4386528473   -0.4354160704   -0.2667017939
F       -0.8512330611    0.2629067888    2.5053160934
F        0.1079945571    1.5173195846   -1.3067015158
F        1.1659486160   -0.3087026899   -1.8727031680
H        0.9774307907    1.0695545156    2.2145134363
H       -0.3622927888    1.6237874548    1.1107609578
H       -0.8131140612   -0.0610072617   -2.1662980820
10   
torsion grid (120,)
C        0.0744553908    0.7901121726    1.6938924422
C       -0.0178045735    0.1562388481   -1.4869679572
O        0.5970785608   -0.0529989963    0.7161826006
O       -0.4656814004   -0.2967682719   -0.2660031171
F       -0.7775322177    0.1134742431    2.5481038100
F        0.2346605776    1.4988542933   -1.4703821884
F        1.1264832219   -0.4554875715   -1.8801872211
H        0.9562290737    1.1085789618    2.2585143697
H       -0.4777636977    1.6248466113    1.2573673351
H       -0.8255897768   -0.0615094007   -2.1906255637
10   
torsion grid (135,)
C        0.0590335218    0.7940753595    1.7476073514
C       -0.0085057639    0.1521515756   -1.5324825523
O        0.6076300291    0.0971380069    0.6772972977
O       -0.4861469333   -0.1434532600   -0.2760405391
F       -0.6931472281   -0.0312354599    2.5648196771
F        0.3541118089    1.4623204433   -1.6465856590
F        1.0777887306   -0.5902262727   -1.8615988960
H        0.9331493727    1.1389763400    2.3084125267
H       -0.5833135895    1.6113135548    1.4113898597
H       -0.8360647896   -0.0657193977   -2.2129245561
10   
torsion grid (150,)
C        0.0465350695    0.7955163626    1.7891912570
C       -0.0024103532    0.1494926267   -1.5662170024
O        0.6124798223    0.2580892705    0.6418572094
O       -0.5019838617    0.0166776599   -0.2917809570
F       -0.5936374406   -0.1689181763    2.5485018225
F        0.4712960816    1.4048213576   -1.8043033650
F        1.0154299744   -0.7128702271   -1.8154989511
H        0.9064678880    1.1702391951    2.3525853563
H       -0.6824484481    1.5745280675    1.5529279671
H       -0.8471935736   -0.0622352466   -2.2273688269
10   
torsion grid (165,)
C        0.0367522891    0.7941584952    1.8167956353
C        0.0011762007    0.1481247281   -1.5862967553
O        0.6109667638    0.4267298359    0.6097380175
O       -0.5146429702    0.1796852762   -0.3127079395
F       -0.4820609585   -0.2950632928    2.4964013409
F        0.5839026553    1.3281439433   -1.9356503389
F        0.9405578457   -0.8198578607   -1.7408889378
H        0.8753551333    1.1980251771    2.3918603216
H       -0.7712257240    1.5165668730    1.6757029956
H       -0.8562460767   -0.0511722855   -2.2350598292
10   
torsion grid (180,)
C        0.0293116151    0.7890856063    1.8289046929
C        0.0029047722    0.1488900545   -1.5915967345
O        0.6016260733    0.5978367383    0.5812248465
O       -0.5259955346    0.3443039639   -0.3384964661
F       -0.3565756396   -0.4057495725    2.4128540578
F        0.6945066616    1.2348446037   -2.0342267095
F        0.8522890062   -0.9092058780   -1.6374682028
H        0.8383813524    1.2238295945    2.4232592596
H       -0.8513142056    1.4343513785    1.7729977575
H       -0.8605989425   -0.0328455992   -2.2375579914
