20   
torsion grid (-165,)
C        5.7306446786    0.9389944801    0.9971840604
C        4.4522493764    1.3061440109    1.4029653003
C        5.9096776535   -0.0355120825    0.0079761928
C        3.3088747510    0.7096757845    0.8400987579
C        3.4669371898   -0.2684277226   -0.1656241060
C        4.7759881193   -0.6038968108   -0.5495488772
C        0.8855285738    0.5077940330    1.1070475201
C        2.1852215388   -2.2260502171   -0.6027911268
O        2.1253469419    1.1934800978    1.3180995741
O        2.3868589005   -0.8200680563   -0.8184005660
F        4.9218636970   -1.5278983512   -1.5371318268
H        6.5962684685    1.4120853944    1.4515126527
H        4.2984170956    2.0599657693    2.1688288354
H        6.8910710025   -0.3407540445   -0.3399917012
H        0.1634855898    1.0381546481    1.7310803811
H        0.9481811500   -0.5347301849    1.4372634080
H        0.5769190179    0.5428810856    0.0612532147
H        2.0914917186   -2.4432978620    0.4685645335
H        3.0035211272   -2.8144123112   -1.0265545757
H        1.2518586261   -2.4773786524   -1.1102755382
20   
torsion grid (-150,)
C        5.7166467295    0.9368383211    1.0059151828
C        4.4309954183    1.3531091816    1.3400372610
C        5.9095746651   -0.0886584293    0.0733287899
C        3.3019716766    0.7559347735    0.7548490553
C        3.4731809570   -0.2678872528   -0.2018139640
C        4.7866764618   -0.6554502178   -0.5097184811
C        0.9271519440    0.4529903084    1.1651442986
C        2.1580699430   -2.1970699224   -0.6919142636
O        2.0977928539    1.2797310301    1.1327946267
O        2.3965262749   -0.7923113781   -0.8782045178
F        4.9550818439   -1.6227546839   -1.4516292145
H        6.5755068145    1.4081307208    1.4746611499
H        4.2637070764    2.1439524158    2.0646308209
H        6.8964964765   -0.4347030129   -0.2163378834
H        0.2126312140    0.9913284235    1.7914026037
H        1.1455896290   -0.5184302726    1.6234458211
H        0.5142462589    0.3034379705    0.1663554554
H        2.0587878049   -2.4339631442    0.3745566835
H        2.9594482646   -2.7981716245   -1.1288991099
H        1.2176680684   -2.4116027982   -1.2030818754
20   
torsion grid (-135,)
C        5.7033844585    0.9429248222    1.0312453665
C        4.4109999123    1.3911704324    1.3000684268
C        5.9152303524   -0.1008134922    0.1246093055
C        3.3039234726    0.8078771734    0.6676693694
C        3.4950657897   -0.2387750236   -0.2593494018
C        4.8105993570   -0.6593354316   -0.5029157493
C        0.9908957153    0.4454785162    1.2323511697
C        2.1676206074   -2.1509561026   -0.7838534541
O        2.0761008005    1.3420328782    0.9540987271
O        2.4261172613   -0.7473000196   -0.9555863606
F        5.0067665768   -1.6463739160   -1.4187873603
H        6.5506619074    1.4025835678    1.5314895012
H        4.2265701447    2.1972526843    2.0034046525
H        6.9073802124   -0.4710407653   -0.1130912343
H        0.2676990721    1.0257927775    1.8094769636
H        1.3329924465   -0.4045845692    1.8345417226
H        0.5297593058    0.0835054180    0.3112708674
H        2.0506496733   -2.3940148051    0.2793045421
H        2.9662245110   -2.7595067677   -1.2150945897
H        1.2312778025   -2.3482654032   -1.3090148344
20   
torsion grid (-120,)
C        5.6517876484    0.9261224614    1.0622248557
C        4.3559743143    1.3968789157    1.2799273019
C        5.8772606915   -0.1257310395    0.1699055465
C        3.2681664287    0.8246552554    0.6104838606
C        3.4719154615   -0.2368870040   -0.2968565035
C        4.7885971634   -0.6754585722   -0.4948063573
C        1.0331892461    0.4854787252    1.3745755727
C        2.1721742725   -2.1502812112   -0.8958825345
O        2.0240492631    1.3646934000    0.8244416636
O        2.4057470555   -0.7352345358   -1.0002848378
F        5.0096471900   -1.6709502233   -1.3965103703
H        6.4888941208    1.3766009403    1.5872224451
H        4.1584504271    2.2146374840    1.9661864392
H        6.8716777848   -0.5114791648   -0.0315598801
H        0.1978857863    1.1233124167    1.6702014852
H        1.4255499487   -0.0327476925    2.2583336518
H        0.6936718252   -0.2434506958    0.6343991144
H        2.1190221471   -2.4552471226    0.1564237569
H        2.9493506585   -2.7239447468   -1.4059259569
H        1.2084972210   -2.3273452342   -1.3769188646
20   
torsion grid (-105,)
C        5.5940073867    0.9060206438    1.0840607977
C        4.2980838356    1.4055713976    1.2390173367
C        5.8290362960   -0.1727414019    0.2289812393
C        3.2310521035    0.8319372419    0.5441402046
C        3.4412141502   -0.2663780446   -0.3184285131
C        4.7567780076   -0.7278649123   -0.4606419092
C        1.0864405446    0.5911734592    1.5041690343
C        2.2209803131   -2.1925792241   -1.0737400323
O        1.9705935910    1.3652226248    0.6836236919
O        2.3656112236   -0.7646736165   -0.9986674976
F        5.0030983203   -1.7537756857   -1.3228181679
H        6.4209814596    1.3573360799    1.6239872487
H        4.0906255141    2.2487521153    1.8911031834
H        6.8231475725   -0.5797153808    0.0719647775
H        0.1440500168    1.1410917021    1.5415228863
H        1.4927077756    0.4875996516    2.5183887326
H        0.9129004397   -0.4000877218    1.0721389061
H        2.4335879100   -2.6565999192   -0.1036264501
H        2.8761873740   -2.6218212711   -1.8347800059
H        1.1773214653   -2.3675353913   -1.3420765247
20   
torsion grid (-90,)
C        5.5309911599    0.8718035109    1.1096351014
C        4.2280545715    1.3626839130    1.2287244854
C        5.8010980941   -0.1882512050    0.2410011240
C        3.1900377687    0.7963055495    0.4852899307
C        3.4325644259   -0.2911537512   -0.3806872174
C        4.7564261365   -0.7387023663   -0.4928410460
C        1.1255349822    0.6757125191    1.6083695147
C        2.2495870564   -2.2288641857   -1.1541601778
O        1.9115498976    1.2967902269    0.5857235848
O        2.3793016519   -0.7996178707   -1.0853529320
F        5.0362567549   -1.7510239536   -1.3602212704
H        6.3374798146    1.3183639510    1.6834436792
H        3.9975035756    2.1968295966    1.8850865814
H        6.8031815682   -0.5842362687    0.1081609432
H        0.1524652891    1.1706518797    1.5936932293
H        1.5905292364    0.8051582291    2.5940651908
H        0.9941611250   -0.3942380329    1.4050087764
H        2.4399442120   -2.6839877345   -0.1751600328
H        2.9285001715   -2.6584744342   -1.8942545554
H        1.2149052607   -2.4148734785   -1.4482760408
20   
torsion grid (-75,)
C        5.4765047830    0.8384330138    1.1320074121
C        4.1625446870    1.3008282195    1.2350006171
C        5.7859571064   -0.1963030913    0.2457445838
C        3.1476701743    0.7244777231    0.4655435507
C        3.4301449589   -0.3361208123   -0.4214656080
C        4.7668119960   -0.7501870941   -0.5197756369
C        1.1511438571    0.8048862744    1.7214441435
C        2.3050968991   -2.2815916253   -1.2581622485
O        1.8542487000    1.1886574095    0.5357904655
O        2.4043683425   -0.8520789225   -1.1586001651
F        5.0844812932   -1.7355184157   -1.4050423368
H        6.2627612572    1.2920811848    1.7279204999
H        3.9103221116    2.1212765320    1.9007133643
H        6.7988704409   -0.5667131369    0.1219910372
H        0.1577319888    1.2517003544    1.6483219814
H        1.6531580155    1.1752968491    2.6239378741
H        1.0587297355   -0.2869107025    1.7821559622
H        2.4865006197   -2.7526729309   -0.2850709650
H        3.0054632235   -2.6830290294   -1.9941641600
H        1.2796635388   -2.4818816647   -1.5744901133
20   
torsion grid (-60,)
C        5.6557158631    0.8370775899    1.0637281423
C        4.2838026286    1.0745423496    1.1503325914
C        6.1550174644   -0.0697857368    0.1235427330
C        3.3918522354    0.4025647368    0.3043999723
C        3.8699745983   -0.5257652085   -0.6424209382
C        5.2579320731   -0.7295922155   -0.7054034988
C        1.3672291589    0.4768877449    1.5546976420
C        1.9206564130   -1.8623661250   -1.0502586243
O        2.0413174056    0.6838534871    0.3088603700
O        3.0936903522   -1.1973580513   -1.5410872729
F        5.7299812914   -1.6171397168   -1.6114171362
H        6.3402457022    1.3705265891    1.7164431595
H        3.8969756803    1.8047652279    1.8546610402
H        7.2166059422   -0.2736770441    0.0255542268
H        0.3112061438    0.6804827077    1.3674325958
H        1.7300912113    1.1576959653    2.3328337385
H        1.4896913015   -0.5583885232    1.8963149492
H        1.0882101820   -1.1641760048   -0.9406287117
H        2.1242661768   -2.3514200244   -0.0901687751
H        1.6778864189   -2.6216364136   -1.7964528964
20   
torsion grid (-45,)
C        5.5293293636    0.7367057437    1.1181302637
C        4.1630456274    1.0104587512    1.2251912327
C        6.0075303728   -0.1291921971    0.1322251181
C        3.2540704179    0.4049288307    0.3484170174
C        3.7145949080   -0.4691754421   -0.6581842278
C        5.0898784404   -0.7153804524   -0.7336931114
C        1.2690781795    0.7392286066    1.6276422704
C        2.0060708431   -2.0499915091   -1.0753144667
O        1.9098719402    0.6845029939    0.3499766349
O        2.8779466131   -1.0307942800   -1.5852124660
F        5.5356171213   -1.5662167768   -1.6874410469
H        6.2274561624    1.2123868005    1.8007396763
H        3.8054156294    1.7020047498    1.9811793155
H        7.0636324418   -0.3549132127    0.0244637460
H        0.1960791911    0.7332822053    1.4273380914
H        1.5223502827    1.6569489881    2.1713507775
H        1.5381530753   -0.1305396146    2.2383554553
H        1.3135475335   -1.6401505380   -0.3335371839
H        2.5876333593   -2.8685826160   -0.6343012537
H        1.4443278602   -2.4228978000   -1.9336516400
20   
torsion grid (-30,)
C        5.4902959084    0.6988405901    1.1526641674
C        4.1184030525    0.9385699266    1.2835891235
C        5.9807520798   -0.1147601693    0.1307322510
C        3.2152497078    0.3502271792    0.3889016564
C        3.6899601477   -0.4695964555   -0.6581292939
C        5.0671750235   -0.6850280541   -0.7518106521
C        1.2675146514    0.8731314387    1.6675379194
C        2.0543093411   -2.1054772954   -1.1315578655
O        1.8649517907    0.5751147830    0.4051754220
O        2.8510411905   -1.0064463338   -1.5984841934
F        5.5226894755   -1.4872252669   -1.7425092383
H        6.1824449574    1.1598897012    1.8512672257
H        3.7583113751    1.5861262862    2.0755792170
H        7.0404821401   -0.3134572583    0.0072778165
H        0.1904445069    0.7813756294    1.5184606503
H        1.4950401400    1.8957201328    1.9917624046
H        1.5977795622    0.1647318550    2.4362587943
H        1.3908137141   -1.7910253903   -0.3195158135
H        2.6952047091   -2.9292779297   -0.7949648790
H        1.4588917855   -2.4316047496   -1.9863008354
20   
torsion grid (-15,)
C        5.2634320341    1.1545223943    0.5407980906
C        3.8872614207    1.2397543641    0.7831686458
C        5.7938545048    0.1229630140   -0.2328046082
C        3.0227710490    0.2764143985    0.2473688245
C        3.5376692860   -0.7743517597   -0.5454333496
C        4.9162858570   -0.8240443680   -0.7565785864
C        1.1143757037    1.1397855075    1.3952113990
C        2.2055034461   -2.6999558738   -0.2488732700
O        1.6639982742    0.2866504902    0.3939778576
O        2.7191307688   -1.6980343650   -1.1402922317
F        5.4128529667   -1.8408685495   -1.4999450466
H        5.9253210103    1.9074009630    0.9589047251
H        3.4994559814    2.0564737447    1.3810573797
H        6.8568324167    0.0377433317   -0.4338927315
H        0.0507804802    0.9012890057    1.4376869879
H        1.2344634757    2.1974396956    1.1310687047
H        1.5742660438    0.9520966962    2.3729170177
H        1.5912971678   -2.2473737991    0.5363295013
H        3.0263141762   -3.2722110572    0.1998656763
H        1.5902507040   -3.3621791418   -0.8607738226
20   
torsion grid (0,)
C        5.2644116311    1.1315502507    0.5664268573
C        3.8962412722    1.1878095830    0.8595395485
C        5.7825255616    0.1354913956   -0.2595560720
C        3.0257203070    0.2348787870    0.3146902306
C        3.5293465032   -0.7824597442   -0.5284412048
C        4.9003318044   -0.8061733762   -0.7859353430
C        1.1095070882    1.2028430101    1.3643532448
C        2.2424150329   -2.7424593556   -0.2549722755
O        1.6768621806    0.1990107588    0.5273821624
O        2.7030375690   -1.6972286292   -1.1260873479
F        5.3849184638   -1.7892004857   -1.5810528632
H        5.9300595541    1.8778610687    0.9903160758
H        3.5213255843    1.9749715852    1.5030158672
H        6.8391236442    0.0728254260   -0.4988091119
H        0.0399184776    0.9919034381    1.3965158737
H        1.2698290608    2.2048054137    0.9485273113
H        1.5213546410    1.1567704714    2.3799420251
H        1.6508737162   -2.3322606501    0.5697906411
H        3.0903532072   -3.3148300425    0.1398655057
H        1.6166956630   -3.3931090312   -0.8686812648
20   
torsion grid (15,)
C        5.2750286934    1.1132372266    0.5948361910
C        3.9186607644    1.1399966968    0.9402063224
C        5.7733324464    0.1531277396   -0.2848940029
C        3.0379334948    0.2001631904    0.3890565042
C        3.5208457000   -0.7814872064   -0.5059996883
C        4.8826939046   -0.7797836262   -0.8117810724
C        1.1028337085    1.2430783431    1.3263215592
C        2.2669491490   -2.7667966495   -0.2594733351
O        1.7037759695    0.1259768582    0.6751070662
O        2.6836950360   -1.6839124138   -1.1068168624
F        5.3483069839   -1.7269846553   -1.6599111951
H        5.9481258599    1.8505953876    1.0225987538
H        3.5576777991    1.8947030754    1.6293823850
H        6.8210425215    0.1118405346   -0.5645807856
H        0.0309354510    1.0410939048    1.3337741841
H        1.2981004380    2.1717122849    0.7774486106
H        1.4575732346    1.3453319859    2.3592437348
H        1.7011115887   -2.3950622903    0.6006743492
H        3.1352724624   -3.3423440507    0.0829301230
H        1.6272177433   -3.4022940077   -0.8746258669
20   
torsion grid (30,)
C        5.2829783533    1.0982006773    0.6170367731
C        3.9430884417    1.0973037696    1.0187834178
C        5.7513286917    0.1705035644   -0.3141806965
C        3.0480456903    0.1694669698    0.4704939506
C        3.4991191601   -0.7785192684   -0.4739064769
C        4.8490315028   -0.7540679898   -0.8336847120
C        1.0800802790    1.2624923151    1.2710238371
C        2.2528386069   -2.7712241058   -0.2396859122
O        1.7321927963    0.0691743678    0.8333953579
O        2.6478002102   -1.6686159221   -1.0722976169
F        5.2873363393   -1.6676038548   -1.7316666460
H        5.9680984313    1.8262302855    1.0416563619
H        3.5996570198    1.8201883411    1.7507716261
H        6.7869204764    0.1482680037   -0.6379153171
H        0.0125008062    1.0370605319    1.2713327549
H        1.2826542050    2.0928608217    0.5853792492
H        1.3863819132    1.5416019877    2.2864329776
H        1.7036969898   -2.4202350385    0.6395144112
H        3.1305611289   -3.3499126553    0.0721349185
H        1.6036043480   -3.3963477281   -0.8554938459
20   
torsion grid (45,)
C        5.3165517104    1.0871501871    0.6603475412
C        3.9958970359    1.0644263281    1.1174891867
C        5.7458591796    0.1966272494   -0.3263422895
C        3.0805585551    0.1560261702    0.5709885607
C        3.4901141092   -0.7502324816   -0.4289635834
C        4.8256305034   -0.7096276558   -0.8437350626
C        1.0675574856    1.2662999727    1.2077543197
C        2.2472642383   -2.7480922195   -0.2243471022
O        1.7828128987    0.0436885160    1.0029122132
O        2.6159459752   -1.6159669013   -1.0293515312
F        5.2269493348   -1.5854815208   -1.7949235637
H        6.0193532554    1.7983866052    1.0844847162
H        3.6776228097    1.7513584995    1.8949963295
H        6.7673595837    0.1896165986   -0.6930016540
H        0.0160304129    0.9884842442    1.2986489725
H        1.1997772166    1.9408979122    0.3548086790
H        1.3831789093    1.7719802073    2.1279650832
H        1.7311682298   -2.4280824402    0.6859691641
H        3.1339402429   -3.3392594026    0.0341384919
H        1.5748782912   -3.3489301056   -0.8394874365
20   
torsion grid (60,)
C        5.3628239553    1.0676309883    0.7114724099
C        4.0632467266    1.0225307862    1.2216856347
C        5.7462437750    0.2222662504   -0.3338221406
C        3.1269986497    0.1355246491    0.6772791641
C        3.4873092900   -0.7192320635   -0.3825705432
C        4.8051552824   -0.6598815531   -0.8531175597
C        1.0610197763    1.2231864289    1.1202070673
C        2.2260532228   -2.7103959686   -0.2173119558
O        1.8453161305    0.0248727841    1.1676839682
O        2.5851326742   -1.5514206116   -0.9885997900
F        5.1641781700   -1.4897864740   -1.8606536017
H        6.0858436999    1.7573117801    1.1371292655
H        3.7738590302    1.6656997588    2.0472113814
H        6.7514843414    0.2318204973   -0.7431570066
H        0.0606854234    0.9442134586    1.4561429004
H        1.0125880121    1.6106962963    0.0962227635
H        1.4610619624    1.9969505956    1.7853957333
H        1.7467680142   -2.4197461952    0.7221974244
H        3.1119690009   -3.3239220849   -0.0145235755
H        1.5240868042   -3.2757499192   -0.8330349247
20   
torsion grid (75,)
C        5.4059297254    1.0484855579    0.7674588879
C        4.1227153334    0.9956263691    1.3170041349
C        5.7433654954    0.2420597324   -0.3241012663
C        3.1634396075    0.1356806453    0.7722301295
C        3.4746950071   -0.6738343527   -0.3359828346
C        4.7763691534   -0.6081178828   -0.8492298535
C        1.0454685704    1.1563155430    1.0069559844
C        2.2104177878   -2.6644407274   -0.2154090610
O        1.8967510918    0.0419869731    1.3095556958
O        2.5375865992   -1.4672166849   -0.9423874850
F        5.0930248858   -1.3986022819   -1.9018861004
H        6.1510942081    1.7133604324    1.1943770161
H        3.8574657010    1.6047500590    2.1764073304
H        6.7346719105    0.2582435749   -0.7661819991
H        0.0900291411    0.9542875269    1.4948665593
H        0.8973850326    1.2438227420   -0.0756239902
H        1.4638987015    2.0922226446    1.3958205931
H        1.7915279870   -2.4205323144    0.7654300701
H        3.0994692690   -3.2955824333   -0.0998609627
H        1.4663314085   -3.1888227408   -0.8177651988
20   
torsion grid (90,)
C        5.4624392474    1.0301719676    0.8044606624
C        4.1954110475    0.9902263008    1.3931435702
C        5.7441456138    0.2556270000   -0.3250562566
C        3.2018828925    0.1684304703    0.8540188491
C        3.4568961157   -0.6071238499   -0.2920817746
C        4.7399415150   -0.5520920500   -0.8487890013
C        1.0246975076    1.0643484174    0.9189091040
C        2.1869767138   -2.5935851106   -0.2076923343
O        1.9535584717    0.0990758807    1.4366354228
O        2.4751860595   -1.3575246574   -0.8854105567
F        5.0026067994   -1.3122387407   -1.9382323302
H        6.2366578979    1.6639763133    1.2269071003
H        3.9647502368    1.5781537182    2.2768589501
H        6.7204253434    0.2654927576   -0.7996826367
H        0.0882205775    0.9108245780    1.4587435735
H        0.8640864296    0.9089036224   -0.1537868087
H        1.3877291878    2.0844924874    1.0938544920
H        1.8466091856   -2.4037920844    0.8149198077
H        3.0734744016   -3.2383703333   -0.1968180284
H        1.3924288741   -3.0744905911   -0.7811954816
20   
torsion grid (105,)
C        5.5265130401    0.9995664744    0.8335083320
C        4.2676650521    0.9880375763    1.4411446318
C        5.7630499722    0.2531651406   -0.3245477966
C        3.2335844334    0.2225663098    0.8958254363
C        3.4487388755   -0.5365061248   -0.2704625307
C        4.7212362277   -0.5037895003   -0.8512348213
C        0.9888049626    0.9581811493    0.8549306796
C        2.1579153968   -2.5082333139   -0.1921381015
O        2.0041428124    0.1849045189    1.5181073186
O        2.4396913288   -1.2612668201   -0.8536829274
F        4.9393179564   -1.2456397566   -1.9630555146
H        6.3285854676    1.5938734300    1.2613805350
H        4.0689532096    1.5602910081    2.3424208790
H        6.7303891841    0.2446518487   -0.8171563434
H        0.0805277908    0.8418487998    1.4493902816
H        0.8183851035    0.5895019260   -0.1614206609
H        1.2751064287    2.0164863418    0.8241146321
H        1.8531307920   -2.3364215970    0.8449724959
H        3.0367046765   -3.1626302733   -0.2223210044
H        1.3401069483   -2.9685355814   -0.7496042900
20   
torsion grid (120,)
C        5.5493005327    0.9508910612    0.8317934538
C        4.2883314859    0.9852207236    1.4314693620
C        5.7591778132    0.2184906398   -0.3405630433
C        3.2186110256    0.2842274407    0.8644476037
C        3.4141795025   -0.4791261063   -0.3038260267
C        4.6890215490   -0.4856030342   -0.8814277362
C        0.9056439278    0.8508748009    0.7655296136
C        2.1189125915   -2.4439138825   -0.2243215959
O        2.0053964967    0.2995799564    1.5132381157
O        2.3956149576   -1.1957997090   -0.8853654814
F        4.8811127813   -1.2275578984   -1.9982338609
H        6.3736487436    1.5017709090    1.2752182968
H        4.1076130709    1.5528071300    2.3392599236
H        6.7270985697    0.1778526346   -0.8301418865
H        0.0469775270    0.8278584074    1.4390052953
H        0.6969783414    0.2627166358   -0.1313144465
H        1.1227699042    1.8885054154    0.4850545474
H        1.8219959047   -2.2754676162    0.8162824178
H        2.9976721739   -3.0977510253   -0.2603738571
H        1.2973988072   -2.9041105367   -0.7764357019
20   
torsion grid (135,)
C        5.6108968341    0.9245584835    0.8918900618
C        4.3528242653    1.0451351464    1.4817162887
C        5.7855976470    0.1599103151   -0.2669741046
C        3.2414389367    0.3939935530    0.9277240216
C        3.3999164357   -0.3963282140   -0.2275110898
C        4.6759726951   -0.4833844112   -0.7989113609
C        0.8692847914    0.8016460270    0.8162380622
C        2.2208047586   -2.4278367697   -0.3343134393
O        2.0482499551    0.5170620797    1.5900108174
O        2.3423301728   -1.0707861545   -0.7933847294
F        4.8218349534   -1.2555429271   -1.9045113909
H        6.4624510880    1.4371020671    1.3298996438
H        4.2014654804    1.6430235893    2.3751505848
H        6.7507637291    0.0555271733   -0.7522150863
H        0.1632139949    1.2559379156    1.5147212883
H        0.4419906457   -0.1062325209    0.3862871558
H        1.0957914287    1.5077926176    0.0106826432
H        2.0597030804   -2.4563159283    0.7498836586
H        3.1157817174   -3.0051694825   -0.5909183428
H        1.3548350772   -2.8484747339   -0.8491491222
20   
torsion grid (150,)
C        5.6947400842    0.9306462757    0.9534880407
C        4.4347599109    1.1119889346    1.5180079656
C        5.8579033521    0.1381104630   -0.1891237335
C        3.3007118274    0.4973472070    0.9609380197
C        3.4477398154   -0.3260382137   -0.1736174389
C        4.7303292649   -0.4670212517   -0.7235875676
C        0.8833419395    0.7257681852    0.8922092350
C        2.2981944227   -2.3707472060   -0.3998885977
O        2.1223637953    0.7131923258    1.6184482133
O        2.3780828616   -0.9783622854   -0.7465079736
F        4.8586182783   -1.2607603922   -1.8177790502
H        6.5580556032    1.4176225724    1.3975797210
H        4.2932840554    1.7341319080    2.3963455926
H        6.8243002740   -0.0127173667   -0.6591533523
H        0.1900522120    1.2906484904    1.5193452388
H        0.5002505007   -0.2843817805    0.7327573303
H        0.9979056464    1.2229201893   -0.0751050632
H        2.1997214971   -2.4938194528    0.6856393014
H        3.1808406476   -2.9132827283   -0.7542146777
H        1.4073872162   -2.7583096313   -0.8982033311
20   
torsion grid (165,)
C        5.7250891434    0.9357693038    0.9843579425
C        4.4594736244    1.1809248869    1.5065024571
C        5.8891431965    0.0948541472   -0.1233921768
C        3.3136962010    0.5879569666    0.9446601847
C        3.4596797254   -0.2812994291   -0.1566887477
C        4.7530155841   -0.4853375037   -0.6641947971
C        0.8690113443    0.6588730789    0.9605128946
C        2.2790609464   -2.3069499401   -0.4506312099
O        2.1430188413    0.9060590726    1.5701184692
O        2.3854741284   -0.9066018021   -0.7532469607
F        4.8786342740   -1.3138609387   -1.7337601186
H        6.5929697524    1.4079927379    1.4353801615
H        4.3183513387    1.8397268920    2.3577450414
H        6.8601267248   -0.1077804489   -0.5632885772
H        0.1560053365    1.2197234456    1.5683599022
H        0.6110400047   -0.4029875229    0.9812359346
H        0.8431765848    1.0172404482   -0.0712199658
H        2.1806623173   -2.4624232260    0.6310924713
H        3.1480707138   -2.8578054087   -0.8238184940
H        1.3783255923   -2.6595712281   -0.9570219655
20   
torsion grid (180,)
C        5.7365939004    0.9427194644    1.0020945233
C        4.4632674916    1.2500957569    1.4677091002
C        5.9100514855    0.0370277042   -0.0518473596
C        3.3163192848    0.6600321622    0.9032055851
C        3.4695669307   -0.2625713237   -0.1536832540
C        4.7735627785   -0.5326736647   -0.6016129984
C        0.8682330728    0.5841142881    1.0279472219
C        2.2422296357   -2.2571455114   -0.5246904020
O        2.1426557570    1.0704427820    1.4649733493
O        2.3934168455   -0.8521454506   -0.7820299888
F        4.9082571009   -1.4067145526   -1.6342471217
H        6.6033219668    1.4128512144    1.4574434010
H        4.3152082589    1.9551027061    2.2798193103
H        6.8872891370   -0.2179858047   -0.4484352462
H        0.1423048221    1.1270311514    1.6364062706
H        0.7639950949   -0.4892912089    1.2130203314
H        0.6991501429    0.7894844076   -0.0306551723
H        2.1302497158   -2.4433069215    0.5509697074
H        3.0953216626   -2.8241203900   -0.9086710913
H        1.3340813714   -2.5643727664   -1.0470718398
