
  -OEChem-12122420533D

 22 21  0     1  0  0  0  0  0999 V2000
    2.4126    2.2457   -1.6740 O   0  0  0  0  0  0  0  0  0  0  0  0
    1.1127    1.9307   -1.8535 C   0  0  0  0  0  0  0  0  0  0  0  0
    0.6223    1.8512   -2.9716 O   0  0  0  0  0  0  0  0  0  0  0  0
    0.3685    1.6598   -0.5369 C   0  0  1  0  0  0  0  0  0  0  0  0
    0.4954    0.1718   -0.2914 C   0  0  0  0  0  0  0  0  0  0  0  0
   -0.4902   -0.7318   -0.3542 C   0  0  0  0  0  0  0  0  0  0  0  0
   -1.9493   -0.4724   -0.6267 C   0  0  0  0  0  0  0  0  0  0  0  0
   -2.3033   -0.4428   -2.4192 P   0  0  0  0  0  0  0  0  0  0  0  0
   -1.6527   -1.5096   -3.2200 O   0  0  0  0  0  0  0  0  0  0  0  0
   -2.0153    1.0715   -2.8957 O   0  0  0  0  0  0  0  0  0  0  0  0
   -1.0700    1.2589   -3.1174 H   0  0  0  0  0  0  0  0  0  0  0  0
   -3.9267   -0.4556   -2.3909 O   0  0  0  0  0  0  0  0  0  0  0  0
   -4.2991   -0.6437   -3.2701 H   0  0  0  0  0  0  0  0  0  0  0  0
   -2.2971    0.4718   -0.1996 H   0  0  0  0  0  0  0  0  0  0  0  0
   -2.5575   -1.2744   -0.1997 H   0  0  0  0  0  0  0  0  0  0  0  0
   -0.2206   -1.7755   -0.2117 H   0  0  0  0  0  0  0  0  0  0  0  0
    1.5062   -0.1749   -0.0787 H   0  0  0  0  0  0  0  0  0  0  0  0
    0.8296    2.4212    0.6227 N   0  0  0  0  0  0  0  0  0  0  0  0
    1.7999    2.1901    0.8294 H   0  0  0  0  0  0  0  0  0  0  0  0
    0.8033    3.4200    0.4219 H   0  0  0  0  0  0  0  0  0  0  0  0
   -0.6740    1.9174   -0.7341 H   0  0  0  0  0  0  0  0  0  0  0  0
    2.8058    2.3430   -2.5636 H   0  0  0  0  0  0  0  0  0  0  0  0
  1  2  1  0  0  0  0
  1 22  1  0  0  0  0
  2  3  2  0  0  0  0
  2  4  1  0  0  0  0
  4  5  1  0  0  0  0
  4 18  1  0  0  0  0
  4 21  1  0  0  0  0
  5  6  2  0  0  0  0
  5 17  1  0  0  0  0
  6  7  1  0  0  0  0
  6 16  1  0  0  0  0
  7  8  1  0  0  0  0
  7 14  1  0  0  0  0
  7 15  1  0  0  0  0
  8  9  2  0  0  0  0
  8 10  1  0  0  0  0
  8 12  1  0  0  0  0
 10 11  1  0  0  0  0
 12 13  1  0  0  0  0
 18 19  1  0  0  0  0
 18 20  1  0  0  0  0
M  END
$$$$
