23
-1 1 C5H12NO3S2
S                     2.177041257237     3.764157088254    -1.358476260351
C                     0.687864623603     3.097923170524    -0.496462549446
C                     0.955825998099     2.545976189451     0.920105197561
N                     1.562050219994     3.512316525969     1.839612059741
H                     2.327273466114     3.994900397628     1.368746891496
H                     0.871217197995     4.220713071884     2.087441014260
C                    -0.354484108028     1.997532298012     1.505713283882
C                    -0.187672009834     1.192653940504     2.801379040424
C                    -1.522178902672     0.652777655652     3.307286053679
S                    -1.336490603573    -0.391524517777     4.805030076938
O                    -2.729896205859    -0.827376511832     5.114447940258
O                    -0.430220527222    -1.497998187073     4.370643580958
O                    -0.738808979350     0.522112594364     5.824273010637
H                    -2.207837788658     1.461594356341     3.581736040380
H                    -2.010124482499     0.019721048197     2.558162997735
H                     0.487456196742     0.347901476909     2.624143061365
H                     0.274524653605     1.810458845814     3.575315332196
H                    -0.835925221501     1.363005281718     0.749323513563
H                    -1.041716280195     2.841652643554     1.675677902391
H                     1.659337566305     1.707711374958     0.819349512684
H                    -0.002994772588     3.947327239387    -0.448936800191
H                     0.233258478073     2.334534063200    -1.134669432313
H                     2.860810440820     2.599565764489    -1.399535014292
