46
0 1 BrC16H21N4O2S2
N                    -5.560725741384    -6.424570416022    -0.237554010580
S                    -6.233810265573    -5.902348006803    -1.534893210675
O                    -5.485224028158    -5.409453551119    -2.720182888277
C                    -7.474285024545    -4.628560574025    -1.188627415232
C                    -8.130382669223    -4.627702566096     0.043571678928
H                    -7.872436476156    -5.376671959562     0.787721585655
C                    -9.090230340038    -3.659088736112     0.329429720854
H                    -9.592831773762    -3.650469159032     1.282871135315
C                    -9.397989682604    -2.674240442527    -0.628201729344
N                   -10.332166003827    -1.652604543023    -0.424700939035
C                   -11.292376425621    -1.464700748279     0.545635759653
N                   -12.012970516826    -0.335011873663     0.382742186953
C                   -12.959645077705    -0.115745507803     1.295583215481
H                   -13.551492967689     0.790527457855     1.184287061416
C                   -13.205967602292    -0.991947851462     2.351967393647
Br                  -14.583089813252    -0.611698840603     3.613827325558
C                   -12.407465248076    -2.148026253813     2.429242760714
S                   -12.669651044910    -3.314069253545     3.730117928222
C                   -11.445227098588    -4.640864282847     3.293101934807
C                   -10.093422228250    -4.334854214928     3.939654026954
H                    -9.339251795402    -5.062459597251     3.623696655165
H                    -9.747966396738    -3.342417488391     3.639978506586
H                   -10.153341519450    -4.352218736462     5.031238411702
C                   -12.065625146859    -6.024487890933     3.630824434063
O                   -13.226679550691    -6.227328278667     2.809003446843
H                   -13.838816444189    -5.487908898697     2.967749429109
C                   -11.097184786457    -7.134383257115     3.206409827526
H                   -11.616247520884    -8.094585619540     3.267518481549
H                   -10.771514869684    -6.989448244412     2.171618153930
H                   -10.218870544176    -7.175166108642     3.854514192227
C                   -12.438547905615    -6.177972502323     5.112762558468
H                   -12.867150230094    -7.170700271034     5.274732891564
H                   -13.185839786156    -5.437962274830     5.418873831529
H                   -11.566644407112    -6.068461882127     5.764595241208
H                   -11.361419398696    -4.596097414855     2.206538235264
N                   -11.445671088851    -2.365323720609     1.525165473014
H                   -10.366296817352    -0.927219440106    -1.131473778764
C                    -8.713283977069    -2.676784800641    -1.861356581048
H                    -8.935868458668    -1.911265802670    -2.601723754446
C                    -7.756603929286    -3.646103621672    -2.142267160020
H                    -7.218345392084    -3.643924131245    -3.084847852536
C                    -7.243177604206    -7.310899814465    -2.024417564251
H                    -7.813696853253    -7.017959931515    -2.906342467308
H                    -6.547511696703    -8.118169290951    -2.258934097641
H                    -7.898014902230    -7.591389898642    -1.199928036900
H                    -4.923991616905    -5.715974476134     0.135647688068
