
  -OEChem-12102412493D

 22 21  0     1  0  0  0  0  0999 V2000
    1.9631    1.3119   -2.3972 O   0  0  0  0  0  0  0  0  0  0  0  0
    1.5031    2.0272   -1.3365 C   0  0  0  0  0  0  0  0  0  0  0  0
    2.0253    3.0596   -0.9662 O   0  0  0  0  0  0  0  0  0  0  0  0
    0.2609    1.3902   -0.7126 C   0  0  1  0  0  0  0  0  0  0  0  0
    0.5490   -0.0440   -0.2884 C   0  0  0  0  0  0  0  0  0  0  0  0
   -0.3786   -0.8947    0.1691 C   0  0  0  0  0  0  0  0  0  0  0  0
   -1.8452   -0.5803    0.3030 C   0  0  0  0  0  0  0  0  0  0  0  0
   -2.7480   -1.1352   -1.1662 P   0  0  0  0  0  0  0  0  0  0  0  0
   -2.6992   -2.5779   -1.5181 O   0  0  0  0  0  0  0  0  0  0  0  0
   -2.1914   -0.1827   -2.3757 O   0  0  0  0  0  0  0  0  0  0  0  0
   -1.7474   -0.7303   -3.0459 H   0  0  0  0  0  0  0  0  0  0  0  0
   -4.2199   -0.5232   -0.8668 O   0  0  0  0  0  0  0  0  0  0  0  0
   -4.9029   -0.9305   -1.4284 H   0  0  0  0  0  0  0  0  0  0  0  0
   -2.0095    0.4921    0.4349 H   0  0  0  0  0  0  0  0  0  0  0  0
   -2.2882   -1.1076    1.1537 H   0  0  0  0  0  0  0  0  0  0  0  0
   -0.0704   -1.9036    0.4342 H   0  0  0  0  0  0  0  0  0  0  0  0
    1.5755   -0.3922   -0.3722 H   0  0  0  0  0  0  0  0  0  0  0  0
   -0.2973    2.1728    0.3913 N   0  0  0  0  0  0  0  0  0  0  0  0
    0.3771    2.1977    1.1552 H   0  0  0  0  0  0  0  0  0  0  0  0
   -0.4109    3.1403    0.0902 H   0  0  0  0  0  0  0  0  0  0  0  0
   -0.4896    1.3568   -1.5130 H   0  0  0  0  0  0  0  0  0  0  0  0
    2.7393    1.7943   -2.7427 H   0  0  0  0  0  0  0  0  0  0  0  0
  1  2  1  0  0  0  0
  1 22  1  0  0  0  0
  2  3  2  0  0  0  0
  2  4  1  0  0  0  0
  4  5  1  0  0  0  0
  4 18  1  0  0  0  0
  4 21  1  0  0  0  0
  5  6  2  0  0  0  0
  5 17  1  0  0  0  0
  6  7  1  0  0  0  0
  6 16  1  0  0  0  0
  7  8  1  0  0  0  0
  7 14  1  0  0  0  0
  7 15  1  0  0  0  0
  8  9  2  0  0  0  0
  8 10  1  0  0  0  0
  8 12  1  0  0  0  0
 10 11  1  0  0  0  0
 12 13  1  0  0  0  0
 18 19  1  0  0  0  0
 18 20  1  0  0  0  0
M  END
$$$$
