
  -OEChem-12102412493D

 20 19  0     1  0  0  0  0  0999 V2000
    1.7511    3.1695   -1.3716 O   0  0  0  0  0  0  0  0  0  0  0  0
    1.9013    1.7626   -0.5292 S   0  0  0  0  0  0  0  0  0  0  0  0
    3.0036    1.0187   -1.1405 O   0  0  0  0  0  0  0  0  0  0  0  0
    1.8939    2.0760    0.8911 O   0  0  0  0  0  0  0  0  0  0  0  0
    0.3067    1.0176   -0.9564 C   0  0  0  0  0  0  0  0  0  0  0  0
    0.0059   -0.1720   -0.0398 C   0  0  1  0  0  0  0  0  0  0  0  0
   -1.4490   -0.5480   -0.2805 N   0  3  0  0  0  0  0  0  0  0  0  0
   -1.7881   -0.7498   -1.4496 O   0  0  0  0  0  0  0  0  0  0  0  0
   -2.1785   -0.6505    0.7039 O   0  5  0  0  0  0  0  0  0  0  0  0
    0.8785   -1.4075   -0.2918 C   0  0  0  0  0  0  0  0  0  0  0  0
    0.5175   -2.5988    0.6003 C   0  0  0  0  0  0  0  0  0  0  0  0
    1.2130   -3.4230    0.4189 H   0  0  0  0  0  0  0  0  0  0  0  0
   -0.4934   -2.9670    0.4015 H   0  0  0  0  0  0  0  0  0  0  0  0
    0.5773   -2.3340    1.6608 H   0  0  0  0  0  0  0  0  0  0  0  0
    0.8013   -1.6779   -1.3499 H   0  0  0  0  0  0  0  0  0  0  0  0
    1.9165   -1.1114   -0.1166 H   0  0  0  0  0  0  0  0  0  0  0  0
    0.0420    0.1325    1.0063 H   0  0  0  0  0  0  0  0  0  0  0  0
   -0.4274    1.8156   -0.8220 H   0  0  0  0  0  0  0  0  0  0  0  0
    0.3526    0.7285   -2.0068 H   0  0  0  0  0  0  0  0  0  0  0  0
    2.4932    3.2166   -2.0061 H   0  0  0  0  0  0  0  0  0  0  0  0
  1  2  1  0  0  0  0
  1 20  1  0  0  0  0
  2  3  2  0  0  0  0
  2  4  2  0  0  0  0
  2  5  1  0  0  0  0
  5  6  1  0  0  0  0
  5 18  1  0  0  0  0
  5 19  1  0  0  0  0
  6  7  1  0  0  0  0
  6 10  1  0  0  0  0
  6 17  1  0  0  0  0
  7  8  2  0  0  0  0
  7  9  1  0  0  0  0
 10 11  1  0  0  0  0
 10 15  1  0  0  0  0
 10 16  1  0  0  0  0
 11 12  1  0  0  0  0
 11 13  1  0  0  0  0
 11 14  1  0  0  0  0
M  CHG  2   7   1   9  -1
M  END
$$$$
