
  -OEChem-12102412493D

 34 34  0     0  0  0  0  0  0999 V2000
    0.4892    0.1108    4.2357 C   0  0  0  0  0  0  0  0  0  0  0  0
   -0.0512    0.1513    5.5795 C   0  0  0  0  0  0  0  0  0  0  0  0
   -1.1497   -0.6285    6.0012 C   0  0  0  0  0  0  0  0  0  0  0  0
   -1.6113   -1.2906    5.2799 H   0  0  0  0  0  0  0  0  0  0  0  0
   -1.6168   -0.5487    7.3125 C   0  0  0  0  0  0  0  0  0  0  0  0
   -2.4484   -1.1614    7.6480 H   0  0  0  0  0  0  0  0  0  0  0  0
   -1.0053    0.3076    8.2300 C   0  0  0  0  0  0  0  0  0  0  0  0
   -1.6802    0.4153    9.9266 S   0  0  0  0  0  0  0  0  0  0  0  0
   -2.3437   -0.9057   10.1432 O   0  0  0  0  0  0  0  0  0  0  0  0
   -0.4998    0.6560   10.8012 O   0  0  0  0  0  0  0  0  0  0  0  0
   -2.6383    1.5578    9.8680 O   0  5  0  0  0  0  0  0  0  0  0  0
    0.0901    1.0890    7.8333 C   0  0  0  0  0  0  0  0  0  0  0  0
    0.5842    1.7414    8.5456 H   0  0  0  0  0  0  0  0  0  0  0  0
    0.5676    1.0178    6.5274 C   0  0  0  0  0  0  0  0  0  0  0  0
    2.0157    2.0577    6.0626 S   0  0  0  0  0  0  0  0  0  0  0  0
    2.3752    2.8144    7.2862 O   0  0  0  0  0  0  0  0  0  0  0  0
    3.0534    1.0759    5.6146 O   0  0  0  0  0  0  0  0  0  0  0  0
    1.5202    2.9067    4.9333 O   0  5  0  0  0  0  0  0  0  0  0  0
    0.0865   -0.6103    3.2159 N   0  3  0  0  0  0  0  0  0  0  0  0
   -0.9108   -1.4536    3.2120 O   0  5  0  0  0  0  0  0  0  0  0  0
    0.8040   -0.5058    1.8827 C   0  0  0  0  0  0  0  0  0  0  0  0
   -0.2493   -0.0576    0.8572 C   0  0  0  0  0  0  0  0  0  0  0  0
    0.1863   -0.0522   -0.1488 H   0  0  0  0  0  0  0  0  0  0  0  0
   -1.1036   -0.7371    0.8822 H   0  0  0  0  0  0  0  0  0  0  0  0
   -0.5994    0.9535    1.0904 H   0  0  0  0  0  0  0  0  0  0  0  0
    1.9756    0.4841    1.8991 C   0  0  0  0  0  0  0  0  0  0  0  0
    2.4290    0.4891    0.9006 H   0  0  0  0  0  0  0  0  0  0  0  0
    2.7470    0.2044    2.6217 H   0  0  0  0  0  0  0  0  0  0  0  0
    1.6566    1.5034    2.1329 H   0  0  0  0  0  0  0  0  0  0  0  0
    1.3136   -1.9179    1.5536 C   0  0  0  0  0  0  0  0  0  0  0  0
    1.7681   -1.9285    0.5560 H   0  0  0  0  0  0  0  0  0  0  0  0
    2.0688   -2.2280    2.2835 H   0  0  0  0  0  0  0  0  0  0  0  0
    0.4852   -2.6283    1.5858 H   0  0  0  0  0  0  0  0  0  0  0  0
    1.3290    0.7509    4.0421 H   0  0  0  0  0  0  0  0  0  0  0  0
  1  2  1  0  0  0  0
  1 19  2  0  0  0  0
  1 34  1  0  0  0  0
  2  3  2  0  0  0  0
  2 14  1  0  0  0  0
  3  4  1  0  0  0  0
  3  5  1  0  0  0  0
  5  6  1  0  0  0  0
  5  7  2  0  0  0  0
  7  8  1  0  0  0  0
  7 12  1  0  0  0  0
  8  9  2  0  0  0  0
  8 10  2  0  0  0  0
  8 11  1  0  0  0  0
 12 13  1  0  0  0  0
 12 14  2  0  0  0  0
 14 15  1  0  0  0  0
 15 16  2  0  0  0  0
 15 17  2  0  0  0  0
 15 18  1  0  0  0  0
 19 20  1  0  0  0  0
 19 21  1  0  0  0  0
 21 22  1  0  0  0  0
 21 26  1  0  0  0  0
 21 30  1  0  0  0  0
 22 23  1  0  0  0  0
 22 24  1  0  0  0  0
 22 25  1  0  0  0  0
 26 27  1  0  0  0  0
 26 28  1  0  0  0  0
 26 29  1  0  0  0  0
 30 31  1  0  0  0  0
 30 32  1  0  0  0  0
 30 33  1  0  0  0  0
M  CHG  4  11  -1  18  -1  19   1  20  -1
M  END
$$$$
