
  -OEChem-12122420533D

 23 22  0     1  0  0  0  0  0999 V2000
    3.5839    2.0867   -0.0510 S   0  0  0  0  0  0  0  0  0  0  0  0
    1.9961    1.4121    0.6072 C   0  0  0  0  0  0  0  0  0  0  0  0
    0.9046    2.4752    0.8368 C   0  0  1  0  0  0  0  0  0  0  0  0
    0.5726    3.2609   -0.3632 N   0  0  0  0  0  0  0  0  0  0  0  0
    1.4410    3.5743   -0.7994 H   0  0  0  0  0  0  0  0  0  0  0  0
    0.1228    2.6433   -1.0406 H   0  0  0  0  0  0  0  0  0  0  0  0
   -0.3777    1.8358    1.3926 C   0  0  0  0  0  0  0  0  0  0  0  0
   -0.2138    1.1169    2.7380 C   0  0  0  0  0  0  0  0  0  0  0  0
   -1.5436    0.6415    3.3146 C   0  0  0  0  0  0  0  0  0  0  0  0
   -1.3073   -0.2979    4.8736 S   0  0  0  0  0  0  0  0  0  0  0  0
   -2.6890   -0.6850    5.2788 O   0  0  0  0  0  0  0  0  0  0  0  0
   -0.4367   -1.4471    4.4772 O   0  0  0  0  0  0  0  0  0  0  0  0
   -0.6440    0.6751    5.7937 O   0  5  0  0  0  0  0  0  0  0  0  0
   -2.2063    1.4799    3.5519 H   0  0  0  0  0  0  0  0  0  0  0  0
   -2.0616   -0.0346    2.6262 H   0  0  0  0  0  0  0  0  0  0  0  0
    0.4356    0.2417    2.6383 H   0  0  0  0  0  0  0  0  0  0  0  0
    0.2627    1.7851    3.4648 H   0  0  0  0  0  0  0  0  0  0  0  0
   -0.7763    1.1326    0.6443 H   0  0  0  0  0  0  0  0  0  0  0  0
   -1.1191    2.6382    1.4865 H   0  0  0  0  0  0  0  0  0  0  0  0
    1.2823    3.1815    1.5882 H   0  0  0  0  0  0  0  0  0  0  0  0
    1.6673    0.6887   -0.1475 H   0  0  0  0  0  0  0  0  0  0  0  0
    2.2165    0.8584    1.5207 H   0  0  0  0  0  0  0  0  0  0  0  0
    3.9391    2.7550    1.0677 H   0  0  0  0  0  0  0  0  0  0  0  0
  1  2  1  0  0  0  0
  1 23  1  0  0  0  0
  2  3  1  0  0  0  0
  2 21  1  0  0  0  0
  2 22  1  0  0  0  0
  3  4  1  0  0  0  0
  3  7  1  0  0  0  0
  3 20  1  0  0  0  0
  4  5  1  0  0  0  0
  4  6  1  0  0  0  0
  7  8  1  0  0  0  0
  7 18  1  0  0  0  0
  7 19  1  0  0  0  0
  8  9  1  0  0  0  0
  8 16  1  0  0  0  0
  8 17  1  0  0  0  0
  9 10  1  0  0  0  0
  9 14  1  0  0  0  0
  9 15  1  0  0  0  0
 10 11  2  0  0  0  0
 10 12  2  0  0  0  0
 10 13  1  0  0  0  0
M  CHG  1  13  -1
M  END
$$$$
