
  -OEChem-12102412493D

 36 38  0     0  0  0  0  0  0999 V2000
    1.0073    0.2882    0.0860 C   0  0  0  0  0  0  0  0  0  0  0  0
   -0.0297   -0.0340    0.1331 H   0  0  0  0  0  0  0  0  0  0  0  0
    2.0402   -0.6658    0.0748 C   0  0  0  0  0  0  0  0  0  0  0  0
    1.8287   -1.7304    0.0973 H   0  0  0  0  0  0  0  0  0  0  0  0
    3.3652   -0.2539    0.0476 C   0  0  0  0  0  0  0  0  0  0  0  0
    3.6976    1.1264    0.0177 C   0  0  0  0  0  0  0  0  0  0  0  0
    5.0512    1.5414    0.0038 C   0  0  0  0  0  0  0  0  0  0  0  0
    5.3445    2.9064   -0.0204 C   0  0  0  0  0  0  0  0  0  0  0  0
    6.3804    3.2304   -0.0431 H   0  0  0  0  0  0  0  0  0  0  0  0
    4.3443    3.8782   -0.0419 C   0  0  0  0  0  0  0  0  0  0  0  0
    4.8426    5.6434   -0.0211 S   0  0  0  0  0  0  0  0  0  0  0  0
    6.2395    5.6462   -0.5084 O   0  0  0  0  0  0  0  0  0  0  0  0
    3.8614    6.2901   -0.9588 O   0  0  0  0  0  0  0  0  0  0  0  0
    4.6568    6.0577    1.3905 O   0  5  0  0  0  0  0  0  0  0  0  0
    2.9857    3.5038   -0.0712 C   0  0  0  0  0  0  0  0  0  0  0  0
    1.9982    4.4531   -0.1308 N   0  0  0  0  0  0  0  0  0  0  0  0
    2.3395    5.3746   -0.4373 H   0  0  0  0  0  0  0  0  0  0  0  0
    1.1167    4.1673   -0.5333 H   0  0  0  0  0  0  0  0  0  0  0  0
    2.6493    2.0986   -0.0057 C   0  0  0  0  0  0  0  0  0  0  0  0
    1.3112    1.6416    0.0477 C   0  0  0  0  0  0  0  0  0  0  0  0
    0.4942    2.3566    0.0879 H   0  0  0  0  0  0  0  0  0  0  0  0
    6.1314    0.5561    0.0115 C   0  0  0  0  0  0  0  0  0  0  0  0
    7.3305    0.8371   -0.0193 O   0  0  0  0  0  0  0  0  0  0  0  0
    5.7466   -0.8114    0.0601 N   0  0  0  0  0  0  0  0  0  0  0  0
    6.8231   -1.8106    0.0563 C   0  0  0  0  0  0  0  0  0  0  0  0
    7.2425   -2.2036   -1.3637 C   0  0  0  0  0  0  0  0  0  0  0  0
    8.3690   -3.2417   -1.3529 C   0  0  0  0  0  0  0  0  0  0  0  0
    8.6640   -3.5170   -2.3714 H   0  0  0  0  0  0  0  0  0  0  0  0
    9.2583   -2.8539   -0.8421 H   0  0  0  0  0  0  0  0  0  0  0  0
    8.0589   -4.1580   -0.8361 H   0  0  0  0  0  0  0  0  0  0  0  0
    6.3692   -2.6025   -1.8914 H   0  0  0  0  0  0  0  0  0  0  0  0
    7.5671   -1.3026   -1.8945 H   0  0  0  0  0  0  0  0  0  0  0  0
    6.4575   -2.6847    0.5973 H   0  0  0  0  0  0  0  0  0  0  0  0
    7.6691   -1.3762    0.5903 H   0  0  0  0  0  0  0  0  0  0  0  0
    4.4343   -1.2783    0.0486 C   0  0  0  0  0  0  0  0  0  0  0  0
    4.1932   -2.4908    0.0414 O   0  0  0  0  0  0  0  0  0  0  0  0
  1  2  1  0  0  0  0
  1  3  2  0  0  0  0
  1 20  1  0  0  0  0
  3  4  1  0  0  0  0
  3  5  1  0  0  0  0
  5  6  2  0  0  0  0
  5 35  1  0  0  0  0
  6  7  1  0  0  0  0
  6 19  1  0  0  0  0
  7  8  2  0  0  0  0
  7 22  1  0  0  0  0
  8  9  1  0  0  0  0
  8 10  1  0  0  0  0
 10 11  1  0  0  0  0
 10 15  2  0  0  0  0
 11 12  2  0  0  0  0
 11 13  2  0  0  0  0
 11 14  1  0  0  0  0
 15 16  1  0  0  0  0
 15 19  1  0  0  0  0
 16 17  1  0  0  0  0
 16 18  1  0  0  0  0
 19 20  2  0  0  0  0
 20 21  1  0  0  0  0
 22 23  2  0  0  0  0
 22 24  1  0  0  0  0
 24 25  1  0  0  0  0
 24 35  1  0  0  0  0
 25 26  1  0  0  0  0
 25 33  1  0  0  0  0
 25 34  1  0  0  0  0
 26 27  1  0  0  0  0
 26 31  1  0  0  0  0
 26 32  1  0  0  0  0
 27 28  1  0  0  0  0
 27 29  1  0  0  0  0
 27 30  1  0  0  0  0
 35 36  2  0  0  0  0
M  CHG  1  14  -1
M  END
$$$$
