
  -OEChem-12102412493D

 19 18  0     1  0  0  0  0  0999 V2000
   -1.8544   -0.6822    1.1414 N   0  0  0  0  0  0  0  0  0  0  0  0
   -0.4320   -0.3671    1.0194 C   0  0  0  0  0  0  0  0  0  0  0  0
   -0.0338    0.3618   -0.2902 C   0  0  2  0  0  0  0  0  0  0  0  0
   -0.2361   -0.4822   -1.5467 C   0  0  0  0  0  0  0  0  0  0  0  0
   -0.0208    0.0748   -2.4628 H   0  0  0  0  0  0  0  0  0  0  0  0
    0.4028   -1.3692   -1.5197 H   0  0  0  0  0  0  0  0  0  0  0  0
   -1.2800   -0.8051   -1.6095 H   0  0  0  0  0  0  0  0  0  0  0  0
    1.7257    0.8621   -0.1215 S   0  0  0  0  0  0  0  0  0  0  0  0
    2.5596   -0.3513   -0.2066 O   0  0  0  0  0  0  0  0  0  0  0  0
    1.8236    1.7533    1.0490 O   0  0  0  0  0  0  0  0  0  0  0  0
    2.0705    1.8729   -1.5857 C   0  0  0  0  0  0  0  0  0  0  0  0
    3.0757    2.2692   -1.4289 H   0  0  0  0  0  0  0  0  0  0  0  0
    2.0456    1.2515   -2.4807 H   0  0  0  0  0  0  0  0  0  0  0  0
    1.3494    2.6905   -1.6374 H   0  0  0  0  0  0  0  0  0  0  0  0
   -0.5798    1.3107   -0.3532 H   0  0  0  0  0  0  0  0  0  0  0  0
    0.1370   -1.2987    1.0932 H   0  0  0  0  0  0  0  0  0  0  0  0
   -0.1453    0.2532    1.8719 H   0  0  0  0  0  0  0  0  0  0  0  0
   -2.4220    0.1613    1.0870 H   0  0  0  0  0  0  0  0  0  0  0  0
   -2.1635   -1.3107    0.4040 H   0  0  0  0  0  0  0  0  0  0  0  0
  1  2  1  0  0  0  0
  1 18  1  0  0  0  0
  1 19  1  0  0  0  0
  2  3  1  0  0  0  0
  2 16  1  0  0  0  0
  2 17  1  0  0  0  0
  3  4  1  0  0  0  0
  3  8  1  0  0  0  0
  3 15  1  0  0  0  0
  4  5  1  0  0  0  0
  4  6  1  0  0  0  0
  4  7  1  0  0  0  0
  8  9  2  0  0  0  0
  8 10  2  0  0  0  0
  8 11  1  0  0  0  0
 11 12  1  0  0  0  0
 11 13  1  0  0  0  0
 11 14  1  0  0  0  0
M  END
$$$$
