34
-2 1 C11H13NO7S2
C                     0.447143572085    -0.113760315373     4.227693538430
C                    -0.089961819181    -0.004425852978     5.565940592292
C                    -1.375597852504    -0.462997424978     5.927856544443
H                    -1.984128556773    -0.930455824425     5.163677957638
C                    -1.839483586098    -0.316139334664     7.233686779182
H                    -2.820457381732    -0.683669116173     7.520786620102
C                    -1.039468160776     0.290999903421     8.204766019332
S                    -1.721549978155     0.522612867915     9.885602822723
O                    -2.589315342621    -0.674441805524    10.099644489688
O                    -0.537689634657     0.587822401900    10.785227941463
O                    -2.488275320246     1.800016898838     9.792439730131
C                     0.245003592723     0.742767071424     7.869547872392
H                     0.879228914506     1.193197458417     8.625824959715
C                     0.722117259013     0.599312003334     6.568716081539
S                     2.419779945039     1.198094125651     6.177131745571
O                     2.220965156516     2.213321578007     5.093576497847
O                     2.953541867686     1.751744776878     7.444756661017
O                     3.140836351914    -0.016263462512     5.678654348603
N                    -0.106278389918    -0.617428326931     3.149685216189
O                    -1.290605070832    -1.151144015365     3.061702509192
C                     0.729582737639    -0.565196816412     1.868659623439
C                    -0.090086069990    -1.189481322038     0.736852309571
H                     0.505544537449    -1.154848430468    -0.183390516399
H                    -0.345350530539    -2.227241378155     0.960999673728
H                    -1.024215178023    -0.645894203164     0.580855450540
C                     1.041103355399     0.905509918579     1.541303197729
H                     1.582564748252     0.963670790951     0.588677949155
H                     1.649571669675     1.382083871739     2.313830057750
H                     0.110065383125     1.474103274793     1.445395056566
C                     2.021731974031    -1.370761236299     2.087530180620
H                     2.602815600493    -1.394092119757     1.157028243693
H                     2.647710910377    -0.943296621656     2.874607720568
H                     1.779146991041    -2.400666715078     2.370032789230
H                     1.437999148867     0.277692324264     4.077591919905
