46
0 1 BrC16H21N4O2S2
N                    -4.260624532589    -4.138921997549    -0.601834024877
S                    -5.469815673684    -4.913665109938    -1.188122029829
O                    -5.498748326551    -5.509534085251    -2.548612243392
C                    -7.012595762674    -3.969150121255    -1.047146797275
C                    -7.138678477407    -3.020910524067    -0.028241520970
H                    -6.296649239115    -2.828607022991     0.631251726867
C                    -8.325081607362    -2.306403918157     0.109774748417
H                    -8.423850247688    -1.553959592578     0.880841645557
C                    -9.399213489572    -2.552156815227    -0.763979817261
N                   -10.620485132541    -1.862520220568    -0.642158545438
C                   -11.329175033135    -1.648228639081     0.525116987394
N                   -12.566964556436    -1.145367956151     0.356455245512
C                   -13.270268962347    -0.969435748027     1.479091537311
H                   -14.273246480871    -0.561466820883     1.371824554403
C                   -12.776264493962    -1.295608822367     2.741100723654
Br                  -13.853985557646    -1.037730617988     4.292514905055
C                   -11.470866866884    -1.821536900839     2.807372258091
S                   -10.773032819805    -2.292078831768     4.360367996714
C                    -9.100582707896    -2.940158404517     3.876285860326
C                    -8.110635918888    -2.423011725517     4.925971623398
H                    -7.084677138999    -2.646116457108     4.621629299793
H                    -8.198321519340    -1.339545527734     5.037732178092
H                    -8.284951935142    -2.892168312843     5.898034111848
C                    -9.111406054054    -4.490765204373     3.729667963548
O                    -9.496930765908    -5.102993984202     4.972095105963
H                   -10.441193897989    -4.916605297897     5.109861942381
C                   -10.041321233998    -4.957708052922     2.602173401613
H                   -10.022340520593    -6.050468502270     2.556367473001
H                   -11.075007948535    -4.644108948789     2.775856574841
H                    -9.726317783508    -4.553662091069     1.636934129410
C                    -7.689374520596    -4.994541395629     3.451281062445
H                    -7.721316768304    -6.062500796101     3.218099198648
H                    -7.045710307241    -4.861288959412     4.322676476741
H                    -7.253271553665    -4.464007289922     2.599312045183
H                    -8.891514819868    -2.498915322376     2.901974284063
N                   -10.756363817045    -1.970330409174     1.689806245985
H                   -11.199495347440    -1.789775065517    -1.470460540586
C                    -9.243701849001    -3.478220606389    -1.809213501333
H                   -10.067368960881    -3.658399609798    -2.496162680112
C                    -8.050784325329    -4.185498021881    -1.955014782422
H                    -7.918352939305    -4.902414384389    -2.759226953449
C                    -5.706932822018    -6.218103947287     0.030341904696
H                    -6.597791961509    -6.778905788211    -0.254363996732
H                    -4.816480889682    -6.846882331621    -0.020148782137
H                    -5.812800967304    -5.776437507501     1.020318962640
H                    -3.989644149188    -3.379779913056    -1.231900955720
