46
0 1 BrC16H21N4O2S2
N                    -4.810013603319    -5.074084186499    -2.738059711561
S                    -5.194494566043    -4.899787257668    -1.244348875915
O                    -5.205657569886    -6.007201258992    -0.253649977921
C                    -6.785787483831    -4.058120220009    -1.048351860786
C                    -7.216772793833    -3.170127485298    -2.038131101705
H                    -6.605838355003    -3.005273914295    -2.921280213905
C                    -8.434850053279    -2.516154820502    -1.882878175872
H                    -8.773389649774    -1.817432935774    -2.644808087621
C                    -9.235881763434    -2.750676137655    -0.747387005436
N                   -10.473479830420    -2.090637329281    -0.692657640896
C                   -11.315369545849    -1.865482099500     0.371547252558
N                   -12.524997173474    -1.371711559193     0.032542683922
C                   -13.366035030013    -1.163617484236     1.046743379028
H                   -14.348622583302    -0.767189340545     0.798803667719
C                   -13.031740101510    -1.432768390893     2.373846373592
Br                  -14.304900681548    -1.139152695726     3.762759425405
C                   -11.731721994704    -1.911633988298     2.624772141941
S                   -11.214162568063    -2.226908472772     4.289771645103
C                    -9.397250781881    -2.563963467895     4.097201740344
C                    -8.649442165086    -1.653345459911     5.076454048428
H                    -7.570465596719    -1.814385377759     4.996588755798
H                    -8.852068124923    -0.604189519644     4.847537051318
H                    -8.943047800594    -1.832817821239     6.114657883137
C                    -9.085097786771    -4.080301561229     4.232078549511
O                    -9.816742960838    -4.802484454091     3.225178245617
H                   -10.764419952691    -4.662939254155     3.394749018695
C                    -7.610161068454    -4.332907742394     3.895965881414
H                    -7.453594740660    -5.407478254302     3.769676882820
H                    -7.329946209345    -3.834332627562     2.964056068518
H                    -6.950696883030    -3.982094092167     4.693088273758
C                    -9.424153029416    -4.645758425906     5.617418940762
H                    -9.212041975544    -5.718367420772     5.629068554801
H                   -10.484276019204    -4.507102106098     5.855218897034
H                    -8.833080955557    -4.170850296146     6.405947309993
H                    -9.170747430822    -2.279046969812     3.068539658674
N                   -10.886756404987    -2.120641931131     1.614069313489
H                   -10.853205733731    -1.752737063524    -1.568843188471
C                    -8.802349322429    -3.663361471664     0.232137368527
H                    -9.408464650237    -3.884062553362     1.100955557513
C                    -7.577880110289    -4.310595101725     0.073393450052
H                    -7.247606462911    -5.039363287467     0.806466233106
C                    -4.018651500709    -3.647366741215    -0.703184859488
H                    -4.244620075862    -3.410494718349     0.337008824411
H                    -3.028857887337    -4.097277830735    -0.795767868021
H                    -4.105477055899    -2.768524126073    -1.341500789902
H                    -5.400463994499    -5.789593916605    -3.169588137302
