19
0 1 C4H11NO2S
N                    -0.599200045311     0.560632604761     2.195077997874
C                    -0.501990667971    -0.294397480410     1.018929883045
C                    -0.012866441159     0.341211057684    -0.305050182793
C                    -0.274608766323    -0.537351638589    -1.530230810192
H                     0.167822943086    -0.109307241519    -2.432852183216
H                     0.115992813481    -1.550258431914    -1.388719087198
H                    -1.354475040334    -0.621727595429    -1.686665843828
S                     1.756875022933     0.824919594961    -0.233924849768
O                     2.003197378182     1.493346883436     1.061126780747
O                     2.089191442513     1.515952921118    -1.491958470605
C                     2.682763344224    -0.731264378146    -0.206686325991
H                     3.727312056023    -0.432014062251    -0.100959550397
H                     2.378088496242    -1.331042322014     0.651640168070
H                     2.537354765542    -1.263747469979    -1.146492203718
H                    -0.488728164128     1.319940893232    -0.440898587777
H                    -1.494869839573    -0.711552061373     0.813617777353
H                     0.131037908967    -1.155686054492     1.264266349401
H                     0.294319479689     1.023515865047     2.357855484969
H                    -1.286189478600     1.295777809817     2.037729175738
