
  -OEChem-12102412493D

 46 47  0     1  0  0  0  0  0999 V2000
   -4.2606   -4.1389   -0.6018 N   0  0  0  0  0  0  0  0  0  0  0  0
   -5.4698   -4.9137   -1.1881 S   0  0  2  0  0  0  0  0  0  0  0  0
   -5.4987   -5.5095   -2.5486 O   0  0  0  0  0  0  0  0  0  0  0  0
   -7.0126   -3.9692   -1.0471 C   0  0  0  0  0  0  0  0  0  0  0  0
   -7.1387   -3.0209   -0.0282 C   0  0  0  0  0  0  0  0  0  0  0  0
   -6.2966   -2.8286    0.6313 H   0  0  0  0  0  0  0  0  0  0  0  0
   -8.3251   -2.3064    0.1098 C   0  0  0  0  0  0  0  0  0  0  0  0
   -8.4239   -1.5540    0.8808 H   0  0  0  0  0  0  0  0  0  0  0  0
   -9.3992   -2.5522   -0.7640 C   0  0  0  0  0  0  0  0  0  0  0  0
  -10.6205   -1.8625   -0.6422 N   0  0  0  0  0  0  0  0  0  0  0  0
  -11.3292   -1.6482    0.5251 C   0  0  0  0  0  0  0  0  0  0  0  0
  -12.5670   -1.1454    0.3565 N   0  0  0  0  0  0  0  0  0  0  0  0
  -13.2703   -0.9694    1.4791 C   0  0  0  0  0  0  0  0  0  0  0  0
  -14.2732   -0.5615    1.3718 H   0  0  0  0  0  0  0  0  0  0  0  0
  -12.7763   -1.2956    2.7411 C   0  0  0  0  0  0  0  0  0  0  0  0
  -13.8540   -1.0377    4.2925 Br  0  0  0  0  0  0  0  0  0  0  0  0
  -11.4709   -1.8215    2.8074 C   0  0  0  0  0  0  0  0  0  0  0  0
  -10.7730   -2.2921    4.3604 S   0  0  0  0  0  0  0  0  0  0  0  0
   -9.1006   -2.9402    3.8763 C   0  0  1  0  0  0  0  0  0  0  0  0
   -8.1106   -2.4230    4.9260 C   0  0  0  0  0  0  0  0  0  0  0  0
   -7.0847   -2.6461    4.6216 H   0  0  0  0  0  0  0  0  0  0  0  0
   -8.1983   -1.3395    5.0377 H   0  0  0  0  0  0  0  0  0  0  0  0
   -8.2850   -2.8922    5.8980 H   0  0  0  0  0  0  0  0  0  0  0  0
   -9.1114   -4.4908    3.7297 C   0  0  0  0  0  0  0  0  0  0  0  0
   -9.4969   -5.1030    4.9721 O   0  0  0  0  0  0  0  0  0  0  0  0
  -10.4412   -4.9166    5.1099 H   0  0  0  0  0  0  0  0  0  0  0  0
  -10.0413   -4.9577    2.6022 C   0  0  0  0  0  0  0  0  0  0  0  0
  -10.0223   -6.0505    2.5564 H   0  0  0  0  0  0  0  0  0  0  0  0
  -11.0750   -4.6441    2.7759 H   0  0  0  0  0  0  0  0  0  0  0  0
   -9.7263   -4.5537    1.6369 H   0  0  0  0  0  0  0  0  0  0  0  0
   -7.6894   -4.9945    3.4513 C   0  0  0  0  0  0  0  0  0  0  0  0
   -7.7213   -6.0625    3.2181 H   0  0  0  0  0  0  0  0  0  0  0  0
   -7.0457   -4.8613    4.3227 H   0  0  0  0  0  0  0  0  0  0  0  0
   -7.2533   -4.4640    2.5993 H   0  0  0  0  0  0  0  0  0  0  0  0
   -8.8915   -2.4989    2.9020 H   0  0  0  0  0  0  0  0  0  0  0  0
  -10.7564   -1.9703    1.6898 N   0  0  0  0  0  0  0  0  0  0  0  0
  -11.1995   -1.7898   -1.4705 H   0  0  0  0  0  0  0  0  0  0  0  0
   -9.2437   -3.4782   -1.8092 C   0  0  0  0  0  0  0  0  0  0  0  0
  -10.0674   -3.6584   -2.4962 H   0  0  0  0  0  0  0  0  0  0  0  0
   -8.0508   -4.1855   -1.9550 C   0  0  0  0  0  0  0  0  0  0  0  0
   -7.9184   -4.9024   -2.7592 H   0  0  0  0  0  0  0  0  0  0  0  0
   -5.7069   -6.2181    0.0303 C   0  0  0  0  0  0  0  0  0  0  0  0
   -6.5978   -6.7789   -0.2544 H   0  0  0  0  0  0  0  0  0  0  0  0
   -4.8165   -6.8469   -0.0201 H   0  0  0  0  0  0  0  0  0  0  0  0
   -5.8128   -5.7764    1.0203 H   0  0  0  0  0  0  0  0  0  0  0  0
   -3.9896   -3.3798   -1.2319 H   0  0  0  0  0  0  0  0  0  0  0  0
  1  2  2  0  0  0  0
  1 46  1  0  0  0  0
  2  3  2  0  0  0  0
  2  4  1  0  0  0  0
  2 42  1  0  0  0  0
  4  5  2  0  0  0  0
  4 40  1  0  0  0  0
  5  6  1  0  0  0  0
  5  7  1  0  0  0  0
  7  8  1  0  0  0  0
  7  9  2  0  0  0  0
  9 10  1  0  0  0  0
  9 38  1  0  0  0  0
 10 11  1  0  0  0  0
 10 37  1  0  0  0  0
 11 12  1  0  0  0  0
 11 36  2  0  0  0  0
 12 13  2  0  0  0  0
 13 14  1  0  0  0  0
 13 15  1  0  0  0  0
 15 16  1  0  0  0  0
 15 17  2  0  0  0  0
 17 18  1  0  0  0  0
 17 36  1  0  0  0  0
 18 19  1  0  0  0  0
 19 20  1  0  0  0  0
 19 24  1  0  0  0  0
 19 35  1  0  0  0  0
 20 21  1  0  0  0  0
 20 22  1  0  0  0  0
 20 23  1  0  0  0  0
 24 25  1  0  0  0  0
 24 27  1  0  0  0  0
 24 31  1  0  0  0  0
 25 26  1  0  0  0  0
 27 28  1  0  0  0  0
 27 29  1  0  0  0  0
 27 30  1  0  0  0  0
 31 32  1  0  0  0  0
 31 33  1  0  0  0  0
 31 34  1  0  0  0  0
 38 39  1  0  0  0  0
 38 40  2  0  0  0  0
 40 41  1  0  0  0  0
 42 43  1  0  0  0  0
 42 44  1  0  0  0  0
 42 45  1  0  0  0  0
M  END
$$$$
