46
0 1 BrC16H21N4O2S2
N                    -4.692302249804    -5.374873582562     0.226606958665
S                    -5.275220586573    -4.994783351325    -1.161258946700
O                    -4.512391237611    -4.269639537340    -2.210537095151
C                    -6.849010031474    -4.111927530301    -1.014979421706
C                    -7.675635709638    -4.368200523237     0.081409844489
H                    -7.373197021671    -5.098065613961     0.826670933399
C                    -8.884497273875    -3.691843493093     0.227828596007
H                    -9.511307298906    -3.909438452734     1.082207951962
C                    -9.265135409904    -2.738736328126    -0.735764448228
N                   -10.484348902781    -2.044079995488    -0.688831409199
C                   -11.333827770842    -1.816691209245     0.368827355779
N                   -12.524475965673    -1.280319871438     0.027993363317
C                   -13.370895506818    -1.071766010278     1.037854239076
H                   -14.338725249637    -0.641341262987     0.788562178363
C                   -13.060253651317    -1.380736110302     2.362190245382
Br                  -14.340833311724    -1.082627203190     3.743190547406
C                   -11.777056267668    -1.901336062192     2.616381968473
S                   -11.283042819146    -2.267752005049     4.278442611911
C                    -9.467478910821    -2.622397152285     4.094978703925
C                    -8.715128371319    -1.726191931230     5.083808606219
H                    -7.637454219195    -1.897032576153     5.007018907413
H                    -8.906339645340    -0.673634349894     4.860962007272
H                    -9.015179983222    -1.909698813698     6.119447550739
C                    -9.172287860391    -4.142587803883     4.221612948314
O                    -9.906248147712    -4.850639744306     3.205114248253
H                   -10.852723965507    -4.692936082392     3.366139619020
C                    -7.697939989307    -4.408796252410     3.893991373071
H                    -7.551081338066    -5.484374518815     3.764145250559
H                    -7.404345344810    -3.908501311644     2.967331125108
H                    -7.040463515197    -4.069613091758     4.697683770366
C                    -9.527093253070    -4.713402529608     5.600828716614
H                    -9.326341437826    -5.788277307829     5.607424053278
H                   -10.587302906210    -4.565052805157     5.832408406446
H                    -8.936403747876    -4.249705770488     6.396236648880
H                    -9.232197531149    -2.333340953802     3.069532342204
N                   -10.927978357180    -2.112093046834     1.610031950668
H                   -10.835011938589    -1.668855707457    -1.561892398183
C                    -8.422749485005    -2.487960719102    -1.836368690283
H                    -8.710223930472    -1.741441199159    -2.573566806577
C                    -7.218632253759    -3.171817375678    -1.979997820633
H                    -6.554247455831    -2.968854441085    -2.813948872465
C                    -5.776894520816    -6.599508300166    -1.805609354728
H                    -6.251851774096    -6.432622762759    -2.772888160569
H                    -4.862198890209    -7.184390614651    -1.914419212003
H                    -6.459288780295    -7.075062327754    -1.101700543774
H                    -4.348142198653    -4.536156945982     0.700824834963
