
  -OEChem-12122420533D

 46 47  0     1  0  0  0  0  0999 V2000
   -4.8100   -5.0741   -2.7381 N   0  0  0  0  0  0  0  0  0  0  0  0
   -5.1945   -4.8998   -1.2443 S   0  0  2  0  0  0  0  0  0  0  0  0
   -5.2057   -6.0072   -0.2536 O   0  0  0  0  0  0  0  0  0  0  0  0
   -6.7858   -4.0581   -1.0484 C   0  0  0  0  0  0  0  0  0  0  0  0
   -7.2168   -3.1701   -2.0381 C   0  0  0  0  0  0  0  0  0  0  0  0
   -6.6058   -3.0053   -2.9213 H   0  0  0  0  0  0  0  0  0  0  0  0
   -8.4348   -2.5162   -1.8829 C   0  0  0  0  0  0  0  0  0  0  0  0
   -8.7734   -1.8174   -2.6448 H   0  0  0  0  0  0  0  0  0  0  0  0
   -9.2359   -2.7507   -0.7474 C   0  0  0  0  0  0  0  0  0  0  0  0
  -10.4735   -2.0906   -0.6927 N   0  0  0  0  0  0  0  0  0  0  0  0
  -11.3154   -1.8655    0.3715 C   0  0  0  0  0  0  0  0  0  0  0  0
  -12.5250   -1.3717    0.0325 N   0  0  0  0  0  0  0  0  0  0  0  0
  -13.3660   -1.1636    1.0467 C   0  0  0  0  0  0  0  0  0  0  0  0
  -14.3486   -0.7672    0.7988 H   0  0  0  0  0  0  0  0  0  0  0  0
  -13.0317   -1.4328    2.3738 C   0  0  0  0  0  0  0  0  0  0  0  0
  -14.3049   -1.1392    3.7628 Br  0  0  0  0  0  0  0  0  0  0  0  0
  -11.7317   -1.9116    2.6248 C   0  0  0  0  0  0  0  0  0  0  0  0
  -11.2142   -2.2269    4.2898 S   0  0  0  0  0  0  0  0  0  0  0  0
   -9.3973   -2.5640    4.0972 C   0  0  1  0  0  0  0  0  0  0  0  0
   -8.6494   -1.6533    5.0765 C   0  0  0  0  0  0  0  0  0  0  0  0
   -7.5705   -1.8144    4.9966 H   0  0  0  0  0  0  0  0  0  0  0  0
   -8.8521   -0.6042    4.8475 H   0  0  0  0  0  0  0  0  0  0  0  0
   -8.9430   -1.8328    6.1147 H   0  0  0  0  0  0  0  0  0  0  0  0
   -9.0851   -4.0803    4.2321 C   0  0  0  0  0  0  0  0  0  0  0  0
   -9.8167   -4.8025    3.2252 O   0  0  0  0  0  0  0  0  0  0  0  0
  -10.7644   -4.6629    3.3947 H   0  0  0  0  0  0  0  0  0  0  0  0
   -7.6102   -4.3329    3.8960 C   0  0  0  0  0  0  0  0  0  0  0  0
   -7.4536   -5.4075    3.7697 H   0  0  0  0  0  0  0  0  0  0  0  0
   -7.3299   -3.8343    2.9641 H   0  0  0  0  0  0  0  0  0  0  0  0
   -6.9507   -3.9821    4.6931 H   0  0  0  0  0  0  0  0  0  0  0  0
   -9.4242   -4.6458    5.6174 C   0  0  0  0  0  0  0  0  0  0  0  0
   -9.2120   -5.7184    5.6291 H   0  0  0  0  0  0  0  0  0  0  0  0
  -10.4843   -4.5071    5.8552 H   0  0  0  0  0  0  0  0  0  0  0  0
   -8.8331   -4.1709    6.4059 H   0  0  0  0  0  0  0  0  0  0  0  0
   -9.1707   -2.2790    3.0685 H   0  0  0  0  0  0  0  0  0  0  0  0
  -10.8868   -2.1206    1.6141 N   0  0  0  0  0  0  0  0  0  0  0  0
  -10.8532   -1.7527   -1.5688 H   0  0  0  0  0  0  0  0  0  0  0  0
   -8.8023   -3.6634    0.2321 C   0  0  0  0  0  0  0  0  0  0  0  0
   -9.4085   -3.8841    1.1010 H   0  0  0  0  0  0  0  0  0  0  0  0
   -7.5779   -4.3106    0.0734 C   0  0  0  0  0  0  0  0  0  0  0  0
   -7.2476   -5.0394    0.8065 H   0  0  0  0  0  0  0  0  0  0  0  0
   -4.0187   -3.6474   -0.7032 C   0  0  0  0  0  0  0  0  0  0  0  0
   -4.2446   -3.4105    0.3370 H   0  0  0  0  0  0  0  0  0  0  0  0
   -3.0289   -4.0973   -0.7958 H   0  0  0  0  0  0  0  0  0  0  0  0
   -4.1055   -2.7685   -1.3415 H   0  0  0  0  0  0  0  0  0  0  0  0
   -5.4005   -5.7896   -3.1696 H   0  0  0  0  0  0  0  0  0  0  0  0
  1  2  2  0  0  0  0
  1 46  1  0  0  0  0
  2  3  2  0  0  0  0
  2  4  1  0  0  0  0
  2 42  1  0  0  0  0
  4  5  2  0  0  0  0
  4 40  1  0  0  0  0
  5  6  1  0  0  0  0
  5  7  1  0  0  0  0
  7  8  1  0  0  0  0
  7  9  2  0  0  0  0
  9 10  1  0  0  0  0
  9 38  1  0  0  0  0
 10 11  1  0  0  0  0
 10 37  1  0  0  0  0
 11 12  1  0  0  0  0
 11 36  2  0  0  0  0
 12 13  2  0  0  0  0
 13 14  1  0  0  0  0
 13 15  1  0  0  0  0
 15 16  1  0  0  0  0
 15 17  2  0  0  0  0
 17 18  1  0  0  0  0
 17 36  1  0  0  0  0
 18 19  1  0  0  0  0
 19 20  1  0  0  0  0
 19 24  1  0  0  0  0
 19 35  1  0  0  0  0
 20 21  1  0  0  0  0
 20 22  1  0  0  0  0
 20 23  1  0  0  0  0
 24 25  1  0  0  0  0
 24 27  1  0  0  0  0
 24 31  1  0  0  0  0
 25 26  1  0  0  0  0
 27 28  1  0  0  0  0
 27 29  1  0  0  0  0
 27 30  1  0  0  0  0
 31 32  1  0  0  0  0
 31 33  1  0  0  0  0
 31 34  1  0  0  0  0
 38 39  1  0  0  0  0
 38 40  2  0  0  0  0
 40 41  1  0  0  0  0
 42 43  1  0  0  0  0
 42 44  1  0  0  0  0
 42 45  1  0  0  0  0
M  END
$$$$
