
  -OEChem-12102412493D

 23 22  0     1  0  0  0  0  0999 V2000
    0.0237    1.9667   -1.8117 S   0  0  0  0  0  0  0  0  0  0  0  0
    0.5957    3.1689   -0.5340 C   0  0  0  0  0  0  0  0  0  0  0  0
    0.9053    2.5786    0.8585 C   0  0  1  0  0  0  0  0  0  0  0  0
    1.5303    3.5833    1.7328 N   0  0  0  0  0  0  0  0  0  0  0  0
    2.3246    4.0215    1.2685 H   0  0  0  0  0  0  0  0  0  0  0  0
    0.8587    4.3211    1.9437 H   0  0  0  0  0  0  0  0  0  0  0  0
   -0.3369    2.0006    1.5446 C   0  0  0  0  0  0  0  0  0  0  0  0
   -0.0598    1.2274    2.8433 C   0  0  0  0  0  0  0  0  0  0  0  0
    0.8119   -0.0090    2.6354 C   0  0  0  0  0  0  0  0  0  0  0  0
    0.8254   -1.1055    4.1083 S   0  0  0  0  0  0  0  0  0  0  0  0
    1.7240   -2.2286    3.7088 O   0  0  0  0  0  0  0  0  0  0  0  0
    1.3617   -0.2521    5.2106 O   0  0  0  0  0  0  0  0  0  0  0  0
   -0.6059   -1.4993    4.2864 O   0  5  0  0  0  0  0  0  0  0  0  0
    0.4414   -0.6274    1.8102 H   0  0  0  0  0  0  0  0  0  0  0  0
    1.8578    0.2480    2.4448 H   0  0  0  0  0  0  0  0  0  0  0  0
    0.4133    1.8777    3.5835 H   0  0  0  0  0  0  0  0  0  0  0  0
   -1.0176    0.8997    3.2615 H   0  0  0  0  0  0  0  0  0  0  0  0
   -0.8517    1.3459    0.8333 H   0  0  0  0  0  0  0  0  0  0  0  0
   -1.0275    2.8350    1.7515 H   0  0  0  0  0  0  0  0  0  0  0  0
    1.6389    1.7742    0.7248 H   0  0  0  0  0  0  0  0  0  0  0  0
    1.4788    3.6867   -0.9235 H   0  0  0  0  0  0  0  0  0  0  0  0
   -0.2146    3.9038   -0.4620 H   0  0  0  0  0  0  0  0  0  0  0  0
    1.0338    1.0854   -1.6466 H   0  0  0  0  0  0  0  0  0  0  0  0
  1  2  1  0  0  0  0
  1 23  1  0  0  0  0
  2  3  1  0  0  0  0
  2 21  1  0  0  0  0
  2 22  1  0  0  0  0
  3  4  1  0  0  0  0
  3  7  1  0  0  0  0
  3 20  1  0  0  0  0
  4  5  1  0  0  0  0
  4  6  1  0  0  0  0
  7  8  1  0  0  0  0
  7 18  1  0  0  0  0
  7 19  1  0  0  0  0
  8  9  1  0  0  0  0
  8 16  1  0  0  0  0
  8 17  1  0  0  0  0
  9 10  1  0  0  0  0
  9 14  1  0  0  0  0
  9 15  1  0  0  0  0
 10 11  2  0  0  0  0
 10 12  2  0  0  0  0
 10 13  1  0  0  0  0
M  CHG  1  13  -1
M  END
$$$$
