22
0 1 C5H10NO5P
O                     2.412599015582     2.245704842003    -1.673964844633
C                     1.112658189816     1.930742450373    -1.853540750066
O                     0.622291867672     1.851225890817    -2.971561891615
C                     0.368491412919     1.659762998323    -0.536872288705
C                     0.495439290058     0.171828830446    -0.291436781542
C                    -0.490246479381    -0.731789015017    -0.354231378284
C                    -1.949286179820    -0.472430638479    -0.626702750227
P                    -2.303264886569    -0.442841578325    -2.419246756666
O                    -1.652699980132    -1.509648769506    -3.220009919970
O                    -2.015277689553     1.071505141788    -2.895686002475
H                    -1.070029896269     1.258893766642    -3.117353261215
O                    -3.926699170866    -0.455564781797    -2.390856685069
H                    -4.299089196341    -0.643722613352    -3.270082742018
H                    -2.297094198742     0.471778586320    -0.199610951512
H                    -2.557512231477    -1.274420032382    -0.199684644731
H                    -0.220611391452    -1.775483386084    -0.211713699996
H                     1.506247953952    -0.174897396796    -0.078710823752
N                     0.829554695192     2.421216671750     0.622669118106
H                     1.799877100803     2.190145817557     0.829447076422
H                     0.803330175494     3.419983564250     0.421850060313
H                    -0.674011330447     1.917399934936    -0.734136625043
H                     2.805810603225     2.343008894438    -2.563637881032
