
  -OEChem-12102412493D

 36 38  0     0  0  0  0  0  0999 V2000
    1.0173    0.2796    0.0704 C   0  0  0  0  0  0  0  0  0  0  0  0
   -0.0196   -0.0438    0.1095 H   0  0  0  0  0  0  0  0  0  0  0  0
    2.0516   -0.6729    0.0798 C   0  0  0  0  0  0  0  0  0  0  0  0
    1.8416   -1.7375    0.1138 H   0  0  0  0  0  0  0  0  0  0  0  0
    3.3761   -0.2593    0.0579 C   0  0  0  0  0  0  0  0  0  0  0  0
    3.7068    1.1211    0.0184 C   0  0  0  0  0  0  0  0  0  0  0  0
    5.0600    1.5381    0.0205 C   0  0  0  0  0  0  0  0  0  0  0  0
    5.3514    2.9034    0.0017 C   0  0  0  0  0  0  0  0  0  0  0  0
    6.3871    3.2289   -0.0052 H   0  0  0  0  0  0  0  0  0  0  0  0
    4.3501    3.8736   -0.0377 C   0  0  0  0  0  0  0  0  0  0  0  0
    4.8468    5.6390   -0.0158 S   0  0  0  0  0  0  0  0  0  0  0  0
    6.2507    5.6405   -0.4830 O   0  0  0  0  0  0  0  0  0  0  0  0
    3.8787    6.2816   -0.9698 O   0  0  0  0  0  0  0  0  0  0  0  0
    4.6404    6.0582    1.3915 O   0  5  0  0  0  0  0  0  0  0  0  0
    2.9928    3.4972   -0.0859 C   0  0  0  0  0  0  0  0  0  0  0  0
    2.0047    4.4447   -0.1635 N   0  0  0  0  0  0  0  0  0  0  0  0
    2.3493    5.3656   -0.4682 H   0  0  0  0  0  0  0  0  0  0  0  0
    1.1302    4.1559   -0.5791 H   0  0  0  0  0  0  0  0  0  0  0  0
    2.6576    2.0917   -0.0188 C   0  0  0  0  0  0  0  0  0  0  0  0
    1.3197    1.6332    0.0238 C   0  0  0  0  0  0  0  0  0  0  0  0
    0.5014    2.3473    0.0506 H   0  0  0  0  0  0  0  0  0  0  0  0
    6.1415    0.5546    0.0440 C   0  0  0  0  0  0  0  0  0  0  0  0
    7.3401    0.8381    0.0660 O   0  0  0  0  0  0  0  0  0  0  0  0
    5.7582   -0.8140    0.0389 N   0  0  0  0  0  0  0  0  0  0  0  0
    6.8363   -1.8113    0.0600 C   0  0  0  0  0  0  0  0  0  0  0  0
    7.2695   -2.1677    1.4853 C   0  0  0  0  0  0  0  0  0  0  0  0
    8.3997   -3.2018    1.4887 C   0  0  0  0  0  0  0  0  0  0  0  0
    8.7045   -3.4527    2.5107 H   0  0  0  0  0  0  0  0  0  0  0  0
    8.0887   -4.1308    0.9957 H   0  0  0  0  0  0  0  0  0  0  0  0
    9.2831   -2.8227    0.9614 H   0  0  0  0  0  0  0  0  0  0  0  0
    7.5956   -1.2531    1.9910 H   0  0  0  0  0  0  0  0  0  0  0  0
    6.4025   -2.5568    2.0303 H   0  0  0  0  0  0  0  0  0  0  0  0
    7.6767   -1.3896   -0.4926 H   0  0  0  0  0  0  0  0  0  0  0  0
    6.4674   -2.6996   -0.4552 H   0  0  0  0  0  0  0  0  0  0  0  0
    4.4469   -1.2818    0.0817 C   0  0  0  0  0  0  0  0  0  0  0  0
    4.2080   -2.4936    0.1315 O   0  0  0  0  0  0  0  0  0  0  0  0
  1  2  1  0  0  0  0
  1  3  2  0  0  0  0
  1 20  1  0  0  0  0
  3  4  1  0  0  0  0
  3  5  1  0  0  0  0
  5  6  2  0  0  0  0
  5 35  1  0  0  0  0
  6  7  1  0  0  0  0
  6 19  1  0  0  0  0
  7  8  2  0  0  0  0
  7 22  1  0  0  0  0
  8  9  1  0  0  0  0
  8 10  1  0  0  0  0
 10 11  1  0  0  0  0
 10 15  2  0  0  0  0
 11 12  2  0  0  0  0
 11 13  2  0  0  0  0
 11 14  1  0  0  0  0
 15 16  1  0  0  0  0
 15 19  1  0  0  0  0
 16 17  1  0  0  0  0
 16 18  1  0  0  0  0
 19 20  2  0  0  0  0
 20 21  1  0  0  0  0
 22 23  2  0  0  0  0
 22 24  1  0  0  0  0
 24 25  1  0  0  0  0
 24 35  1  0  0  0  0
 25 26  1  0  0  0  0
 25 33  1  0  0  0  0
 25 34  1  0  0  0  0
 26 27  1  0  0  0  0
 26 31  1  0  0  0  0
 26 32  1  0  0  0  0
 27 28  1  0  0  0  0
 27 29  1  0  0  0  0
 27 30  1  0  0  0  0
 35 36  2  0  0  0  0
M  CHG  1  14  -1
M  END
$$$$
