15   
torsion grid (-165,)
C        2.6641558183   -0.8500075800   -0.6143158127
C        1.3590090207   -0.6209518695   -0.4084180982
C        3.2571562989   -1.8921454826   -1.5244467240
C       -1.1340594555   -0.6235522728   -0.8751559437
C        0.1993089078   -1.3648670336   -1.0374547160
H        3.3810211420   -0.2315100820   -0.0734829922
H        1.0891449894    0.1647152971    0.2987075390
H        3.9324792536   -1.4339116048   -2.2578449302
H        2.4948832418   -2.4541404226   -2.0695539523
H        3.8565421862   -2.6114668659   -0.9517383480
H       -1.0954140566    0.3648202885   -1.3466082819
H       -1.3757597549   -0.4774331890    0.1837669361
H       -1.9578161681   -1.1821249762   -1.3317371111
H        0.1120912535   -2.3607905780   -0.5813071194
H        0.3936971926   -1.5392659296   -2.1021587564
15   
torsion grid (-150,)
C        2.6494214081   -0.8726120936   -0.5920831254
C        1.3485969934   -0.7068686687   -0.3094228324
C        3.2486939404   -1.8146136974   -1.6020829688
C       -1.0974181724   -0.5773597908   -0.9544160006
C        0.1747671134   -1.4369013449   -0.9194760909
H        3.3662716608   -0.2679549716   -0.0354576143
H        1.0924783402    0.0118706302    0.4709621402
H        3.8725198930   -1.2703316680   -2.3221195139
H        2.4929774419   -2.3716774889   -2.1607650266
H        3.9027507817   -2.5446700754   -1.1084049338
H       -0.9466011380    0.3255081474   -1.5562969637
H       -1.3845932413   -0.2600793753    0.0545344316
H       -1.9391317780   -1.1322947236   -1.3820849254
H       -0.0290873790   -2.3433961791   -0.3315754129
H        0.4159509570   -1.7802609151   -1.9307386994
15   
torsion grid (-135,)
C        2.6315553059   -0.9002605340   -0.5655805283
C        1.3420088694   -0.8010735261   -0.2083332420
C        3.2192909177   -1.7415233653   -1.6674000687
C       -1.0354025986   -0.5671322982   -1.0403613647
C        0.1551251666   -1.5119052665   -0.8078565619
H        3.3534175336   -0.3100035938    0.0001935254
H        1.1045907250   -0.1418009713    0.6288585179
H        3.7917618149   -1.1200848273   -2.3672524033
H        2.4622625413   -2.2835049925   -2.2386920702
H        3.9198146035   -2.4801354275   -1.2573933540
H       -0.7721353698    0.2304998350   -1.7432861022
H       -1.3504343760   -0.0939019510   -0.1033911726
H       -1.8961287264   -1.1088713029   -1.4470702894
H       -0.1611634543   -2.3122011455   -0.1234882383
H        0.4258371409   -2.0029610062   -1.7472293826
15   
torsion grid (-120,)
C        2.6112161364   -0.9209288782   -0.5360356545
C        1.3404481882   -0.8874358819   -0.1060601573
C        3.1643379970   -1.6628533252   -1.7239201531
C       -0.9488270266   -0.5700806037   -1.1295297092
C        0.1392677048   -1.5721768945   -0.7045209264
H        3.3454565546   -0.3487122030    0.0324348588
H        1.1281596112   -0.2840623586    0.7786499222
H        3.6676177197   -0.9712382425   -2.4110614235
H        2.3965028270   -2.1967081398   -2.2882831981
H        3.9178124986   -2.3949603707   -1.4069362408
H       -0.5736348278    0.1071758216   -1.9039084146
H       -1.2732172131    0.0428531568   -0.2809303386
H       -1.8295238421   -1.0881660433   -1.5247257010
H       -0.2851432877   -2.2585239440    0.0412595132
H        0.4248665346   -2.1886874485   -1.5616701392
15   
torsion grid (-105,)
C        2.5870339867   -0.9419657626   -0.4982891318
C        1.3418240596   -0.9672979784    0.0014380761
C        3.0783260517   -1.5829776024   -1.7690938049
C       -0.8415470365   -0.5851575292   -1.2155992713
C        0.1225407200   -1.6173577325   -0.6015598902
H        3.3437960018   -0.3975560798    0.0678645695
H        1.1649062376   -0.4260053240    0.9323406588
H        3.5036679833   -0.8275947766   -2.4417805045
H        2.2894131714   -2.1072391010   -2.3131940936
H        3.8793186931   -2.3026300707   -1.5581179683
H       -0.3573216622   -0.0436561833   -2.0348362336
H       -1.1557800475    0.1537961487   -0.4699733461
H       -1.7418492009   -1.0707690038   -1.6085077252
H       -0.4057747364   -2.1781998070    0.1802798012
H        0.4062463391   -2.3477360725   -1.3652046910
15   
torsion grid (-90,)
C        2.5735793280   -0.9623419904   -0.4532212625
C        1.3574106409   -1.0410777701    0.1084130591
C        2.9860294709   -1.4990085511   -1.7981500947
C       -0.7040508583   -0.6216619830   -1.3042526840
C        0.1179641468   -1.6495843495   -0.5036886497
H        3.3596330692   -0.4581715671    0.1099962462
H        1.2236131627   -0.5743750091    1.0849748984
H        3.3387703317   -0.6866746472   -2.4461319869
H        2.1704918753   -2.0080155217   -2.3173409114
H        3.8190382754   -2.2061039246   -1.6984541771
H       -0.1187394338   -0.2284207295   -2.1417619714
H       -0.9927621551    0.2277889237   -0.6754709497
H       -1.6189459415   -1.0728883215   -1.7048553058
H       -0.5075081026   -2.0703787279    0.2924958611
H        0.3826704677   -2.4858824349   -1.1592826979
15   
torsion grid (-75,)
C        2.5366971211   -0.9865754967   -0.3860129203
C        1.3494600391   -1.1111042561    0.2267982934
C        2.8739286922   -1.4253818397   -1.7863762193
C       -0.5894204327   -0.6592165943   -1.3588599091
C        0.0785703537   -1.6541052374   -0.3907738854
H        3.3541678116   -0.5330035855    0.1751624035
H        1.2675556838   -0.7313239903    1.2452105146
H        3.1146559934   -0.5614324034   -2.4192112076
H        2.0554556236   -1.9700074056   -2.2634710630
H        3.7589613529   -2.0733507670   -1.7882113476
H        0.0786197577   -0.4149301794   -2.1902857065
H       -0.8366877080    0.2782060920   -0.8490238237
H       -1.5149376371   -1.0748601417   -1.7735128897
H       -0.6280736370   -1.9157128236    0.4042378258
H        0.2883610556   -2.5860831929   -0.9296785164
15   
torsion grid (-60,)
C        2.5146996690   -1.0078182733   -0.3649010251
C        1.3503836544   -1.1915201789    0.2767539186
C        2.8126582211   -1.3272517098   -1.8069917252
C       -0.5031263777   -0.7071463492   -1.4304124946
C        0.0373095863   -1.6427720819   -0.3330987183
H        3.3532080588   -0.6194266326    0.2135969571
H        1.3202984271   -0.9233180392    1.3326862434
H        2.8936836766   -0.4134628398   -2.4101718977
H        2.0458134010   -1.9604119199   -2.2603246282
H        3.7730824838   -1.8487293606   -1.8927035687
H        0.1901038173   -0.6277072400   -2.2711068731
H       -0.6609884436    0.3031492249   -1.0377898175
H       -1.4610632007   -1.0748416787   -1.8154589574
H       -0.7116062600   -1.7356607962    0.4600724246
H        0.1512300467   -2.6504048628   -0.7563937659
15   
torsion grid (-45,)
C        2.4132648168   -1.0242842149   -0.3079625944
C        1.2523745262   -1.2497254069    0.3271970324
C        2.7119362659   -1.1806380041   -1.7786787811
C       -0.5387638805   -0.7803772519   -1.4882860978
C       -0.1003465145   -1.6017659282   -0.2633003447
H        3.2612350963   -0.7267952070    0.3092369325
H        1.2611483373   -1.1155984312    1.4090091603
H        2.6373215701   -0.2237475656   -2.3114631655
H        2.0374371608   -1.8878921202   -2.2671402772
H        3.7351534003   -1.5451049715   -1.9202637952
H        0.0879143850   -0.9670212134   -2.3621220831
H       -0.4955407918    0.2925744862   -1.2724876630
H       -1.5703266211   -1.0290994841   -1.7615432346
H       -0.8537652144   -1.4849326119    0.5230086609
H       -0.1187703748   -2.6695185161   -0.5273966883
15   
torsion grid (-30,)
C        2.4352506482   -1.0552840033   -0.3305712938
C        1.2736652146   -1.2938333276    0.2995682245
C        2.7512482535   -0.9969746756   -1.8025407839
C       -0.5355818691   -0.9491163384   -1.5712187874
C       -0.1214251457   -1.5676098305   -0.2265592534
H        3.2986247154   -0.8822141200    0.3138459601
H        1.3294313378   -1.3104232924    1.3890097331
H        3.0427525476    0.0192057354   -2.0986285358
H        1.9243763647   -1.3085708335   -2.4382811138
H        3.6081936325   -1.6445081536   -2.0253015451
H       -0.0963376320   -1.4691469011   -2.4257474828
H       -0.2420084234    0.1039519841   -1.6292634154
H       -1.6235510903   -1.0032726781   -1.6869783819
H       -0.8201324149   -1.2090043844    0.5393108063
H       -0.2787434291   -2.6554956534   -0.2630496047
15   
torsion grid (-15,)
C        2.4527171422   -1.0852941457   -0.3689081666
C        1.2947011570   -1.3288516507    0.2666769716
C        2.7572078949   -0.8725465921   -1.8294343476
C       -0.5099059898   -1.0605625672   -1.6334932294
C       -0.1295158737   -1.4984676738   -0.2143875637
H        3.3356427992   -1.0323150083    0.2704495817
H        1.3795443932   -1.4594443206    1.3471947108
H        3.2530330453    0.0953180557   -1.9769784157
H        1.8808376482   -0.9027827143   -2.4729220383
H        3.4605952549   -1.6382879824   -2.1811328829
H       -0.0584790931   -1.6993584775   -2.3976800241
H       -0.2082794882   -0.0266676527   -1.8285754877
H       -1.5963347020   -1.1214802041   -1.7600850180
H       -0.7672218271   -0.9523181092    0.4943189639
H       -0.4055168365   -2.5544537894   -0.0776893530
15   
torsion grid (0,)
C        2.4474913585   -1.1387522520   -0.3842417219
C        1.2918095158   -1.3909644767    0.2523681097
C        2.7386213497   -0.7935469592   -1.8223207560
C       -0.5071582424   -1.1421605818   -1.6577400234
C       -0.1513207212   -1.4309985636   -0.1960980404
H        3.3431783038   -1.1898749404    0.2373262846
H        1.3908399242   -1.6165870600    1.3161005966
H        3.2586994326    0.1712046766   -1.8801423993
H        1.8543459469   -0.7359243077   -2.4527205978
H        3.4170074414   -1.5380186801   -2.2584275755
H       -0.0389781562   -1.8585392900   -2.3394199521
H       -0.2060405764   -0.1340429529   -1.9578929305
H       -1.5914811415   -1.2168663014   -1.7948041919
H       -0.7075334741   -0.7320666323    0.4453487566
H       -0.5443892671   -2.4225075795    0.0717003053
15   
torsion grid (15,)
C        2.4073842716   -1.2085921977   -0.3688757651
C        1.2485997147   -1.4659918672    0.2598113735
C        2.6916035629   -0.7320244674   -1.7700341634
C       -0.5457085800   -1.2352169341   -1.6549726806
C       -0.1993872525   -1.3701917840   -0.1676232370
H        3.3081585414   -1.3645594387    0.2272898884
H        1.3479451159   -1.7861529488    1.2987528023
H        3.2336745629    0.2219016685   -1.7386750425
H        1.8010136843   -0.5905245927   -2.3781897977
H        3.3465119774   -1.4441036531   -2.2881130359
H       -0.0672320811   -2.0188411645   -2.2507678677
H       -0.2476989252   -0.2650106243   -2.0620725772
H       -1.6288419046   -1.3256562299   -1.7917211525
H       -0.6574109623   -0.5370745352    0.3856210170
H       -0.7009279296   -2.2677586790    0.2197845151
15   
torsion grid (30,)
C        2.4348711224   -1.2367654337   -0.3765634875
C        1.2753218515   -1.4988394895    0.2479553486
C        2.6973473212   -0.6167603680   -1.7243882632
C       -0.5140414726   -1.3535392334   -1.6675824549
C       -0.1661178019   -1.2891497547   -0.1719316549
H        3.3403103274   -1.5025824287    0.1713071412
H        1.3704825722   -1.9285429261    1.2462400182
H        3.4116452728    0.2093494527   -1.6213917668
H        1.8027591012   -0.2253602331   -2.2055176915
H        3.1580435716   -1.3445023048   -2.4051348345
H       -0.0362629003   -2.2134528943   -2.1479701514
H       -0.2111989641   -0.4539060178   -2.2084603719
H       -1.5974351736   -1.4547943399   -1.7941299566
H       -0.5202976067   -0.3341980257    0.2429962702
H       -0.7567141880   -2.0554965502    0.3450815764
15   
torsion grid (45,)
C        2.4198623178   -1.2777347620   -0.3697785679
C        1.2635896329   -1.5533953528    0.2538831706
C        2.6261526077   -0.4700054301   -1.6274253395
C       -0.4829183330   -1.5393764219   -1.6628572728
C       -0.1530349802   -1.2396178258   -0.1901676943
H        3.3317468537   -1.6461283355    0.1005838875
H        1.3397351008   -2.1229298244    1.1802842121
H        3.5594385252    0.0997266046   -1.5622956848
H        1.8152303423    0.2409049619   -1.8028210203
H        2.7058099020   -1.1129225990   -2.5136416532
H       -0.2368772089   -2.5769883564   -1.9128292735
H        0.0643651259   -0.8947553394   -2.3528474534
H       -1.5524861205   -1.3911129109   -1.8491383616
H       -0.3760964675   -0.1820784533    0.0148824211
H       -0.8407066026   -1.8088646897    0.4443668260
15   
torsion grid (60,)
C        2.4284765926   -1.3156644699   -0.3943727720
C        1.2693800328   -1.6169166580    0.2113000634
C        2.6247593582   -0.3738126815   -1.5540300003
C       -0.5239296886   -1.6392225358   -1.6239223716
C       -0.1189385049   -1.1772535083   -0.2117850861
H        3.3376965042   -1.7655716860    0.0050114616
H        1.3168132766   -2.3058181782    1.0545053032
H        3.4788302942    0.2880214614   -1.3689652624
H        1.7478767621    0.2530587601   -1.7344560925
H        2.8431579688   -0.9209022288   -2.4805234732
H       -0.4942142027   -2.7315333914   -1.6997924293
H        0.1468293984   -1.2390319155   -2.3878378466
H       -1.5419775025   -1.3103882450   -1.8617219523
H       -0.1911982246   -0.0816848156   -0.1672339001
H       -0.8489135696   -1.5537927754    0.5120653344
15   
torsion grid (75,)
C        2.4442891855   -1.3295267802   -0.4009094652
C        1.2695473639   -1.6723382658    0.1495818607
C        2.6655576405   -0.2919804478   -1.4694750969
C       -0.6056572564   -1.7250036963   -1.5704749177
C       -0.0906835111   -1.1366524027   -0.2431283370
H        3.3411738811   -1.8362088584   -0.0434523812
H        1.2798288273   -2.4541196788    0.9090662068
H        3.4278210401    0.4319879211   -1.1564717562
H        1.7544987270    0.2603830013   -1.7123791791
H        3.0323266982   -0.7556738997   -2.3943046937
H       -0.6766937459   -2.8166192554   -1.5142603326
H        0.0718378120   -1.4816712134   -2.3945012460
H       -1.5989408574   -1.3320476429   -1.8159369949
H       -0.0559772015   -0.0438197943   -0.3298648581
H       -0.8103634966   -1.3551778729    0.5532003428
15   
torsion grid (90,)
C        2.4770570926   -1.3228098969   -0.4332506385
C        1.2786254201   -1.6936980752    0.0430865187
C        2.7599765448   -0.2043406105   -1.4006957122
C       -0.7109460479   -1.8065391993   -1.5222391555
C       -0.0608197233   -1.0971671942   -0.3191781032
H        3.3509386453   -1.8808668588   -0.0953391857
H        1.2496299698   -2.5468761676    0.7217846503
H        3.4598555340    0.5206787149   -0.9667037706
H        1.8571208993    0.3338070749   -1.6990179308
H        3.2335351035   -0.5924338111   -2.3113625001
H       -0.8348651212   -2.8776782038   -1.3283451752
H       -0.0853903684   -1.7029308735   -2.4147614887
H       -1.6986064796   -1.3858004532   -1.7427548559
H        0.0406354069   -0.0301864959   -0.5439562890
H       -0.7313596833   -1.1657850687    0.5456099202
15   
torsion grid (105,)
C        2.6063906065   -0.7167059302   -0.7496787611
C        1.4222505552   -0.1502639755   -1.0288112678
C        3.0127005738   -2.1483359822   -0.9789288701
C       -0.8929078600   -1.0464642385   -0.5516771750
C        0.2001654711   -0.8137104366   -1.6113440039
H        3.3742544895   -0.0824604783   -0.3049989639
H        1.2996865779    0.9037324921   -0.7740023546
H        3.8848375192   -2.2043681652   -1.6422863025
H        2.2153334472   -2.7510898284   -1.4195967209
H        3.3061161025   -2.6213070537   -0.0332188772
H       -1.1863354487   -0.1052570621   -0.0734969201
H       -0.5325170705   -1.7187516739    0.2338730328
H       -1.7890759491   -1.4899323734   -1.0000196882
H        0.4589322964   -1.7678650554   -2.0802609271
H       -0.2048819112   -0.1782278372   -2.4094188574
15   
torsion grid (120,)
C        2.6253626837   -0.7506973214   -0.7230724507
C        1.4049117888   -0.2315172153   -0.9275122025
C        3.1085737946   -2.1349065758   -1.0665075980
C       -0.9923611287   -0.9504054300   -0.5724199004
C        0.2023108825   -0.8998792195   -1.5414379851
H        3.3696351852   -0.1060309996   -0.2538560767
H        1.2394664547    0.7980391446   -0.6042944558
H        3.9379508136   -2.0891633283   -1.7836369864
H        2.3273171825   -2.7639477075   -1.4989800655
H        3.4932417105   -2.6421915879   -0.1729644766
H       -1.2739072814    0.0556109632   -0.2412270985
H       -0.7462944506   -1.5366043482    0.3191752827
H       -1.8683611789   -1.4035178989   -1.0494383361
H        0.4443936447   -1.9119911996   -1.8781501106
H       -0.0945761598   -0.3392279662   -2.4386115003
15   
torsion grid (135,)
C        2.6446614167   -0.7758352392   -0.6942885230
C        1.3927935830   -0.3094046658   -0.8194597460
C        3.1804593754   -2.1076772280   -1.1484498318
C       -1.0657944629   -0.8644886837   -0.6034788931
C        0.2075065613   -0.9901412303   -1.4559734684
H        3.3737207561   -0.1256952142   -0.2091261664
H        1.1916891875    0.6920953851   -0.4341660992
H        3.9746153277   -1.9708800505   -1.8933786930
H        2.4135244418   -2.7451898042   -1.5940760731
H        3.6282630486   -2.6528549427   -0.3081892516
H       -1.3166500730    0.1872004760   -0.4241830070
H       -0.9344021639   -1.3455104297    0.3717029896
H       -1.9222246455   -1.3321201243   -1.1010820790
H        0.4194422089   -2.0458159252   -1.6496511793
H        0.0194114055   -0.5302472813   -2.4367787109
15   
torsion grid (150,)
C        2.6557086154   -0.7949671174   -0.6665116779
C        1.3805272076   -0.3806840000   -0.7091586196
C        3.2194646413   -2.0668603927   -1.2418745973
C       -1.1202056491   -0.7794121121   -0.6503124627
C        0.2085175703   -1.0772871124   -1.3603581527
H        3.3779125064   -0.1494263303   -0.1655009559
H        1.1510591094    0.5838950764   -0.2529694032
H        3.9668348616   -1.8434360327   -2.0139090583
H        2.4542008811   -2.7009661154   -1.6955807184
H        3.7322026447   -2.6519592362   -0.4681994594
H       -1.3268421108    0.2968400461   -0.6395496015
H       -1.0973246244   -1.1237046535    0.3894541068
H       -1.9577941755   -1.2750509127   -1.1524357057
H        0.3729238067   -2.1591474959   -1.3964391166
H        0.1305376408   -0.7471689953   -2.4062373117
15   
torsion grid (165,)
C        2.6655191164   -0.8106080188   -0.6363777504
C        1.3740907405   -0.4516186282   -0.5964222780
C        3.2381272081   -2.0145938665   -1.3353406492
C       -1.1464557810   -0.7113289077   -0.7124398041
C        0.2139135691   -1.1712339747   -1.2523962278
H        3.3863529199   -0.1769950395   -0.1188196729
H        1.1200170239    0.4621928165   -0.0574096471
H        3.9464015461   -1.7094220416   -2.1162781675
H        2.4681533473   -2.6300784782   -1.8068797142
H        3.7971404197   -2.6463368447   -0.6336476616
H       -1.2919384816    0.3623004525   -0.8776154642
H       -1.2256452667   -0.8955002939    0.3647886596
H       -1.9692428980   -1.2394921568   -1.2055018557
H        0.3148686110   -2.2544172325   -1.1169860608
H        0.2428051208   -1.0005833943   -2.3375627465
15   
torsion grid (180,)
C        2.6708120474   -0.8228637524   -0.6148862604
C        1.3692930083   -0.5255481665   -0.4918143364
C        3.2477297054   -1.9511939280   -1.4272102528
C       -1.1481838515   -0.6546201610   -0.7877765199
C        0.2144980401   -1.2626377383   -1.1416645840
H        3.3916813852   -0.2002729629   -0.0843085027
H        1.1002058991    0.3265616440    0.1335612588
H        3.9257235339   -1.5690428530   -2.2010623581
H        2.4752427185   -2.5458826003   -1.9210129832
H        3.8402309337   -2.6245113646   -0.7949497339
H       -1.2103102350    0.3891161160   -1.1160004048
H       -1.3182442141   -0.6732457542    0.2946565234
H       -1.9658177455   -1.2049095953   -1.2648359669
H        0.2298184241   -2.3181385932   -0.8404052308
H        0.3387151141   -1.2618134125   -2.2323346675
