22   
torsion grid (-165,)
C        1.2695514373   -2.1519742750   -2.2429177310
N        2.0376292984   -1.1231507607   -1.5269033072
C        1.9765188702   -1.0896288996   -0.0990438159
C        2.5451972763   -2.1372303418    0.6388560135
C        2.4761671297   -2.1302739967    2.0288798190
C        1.8420442433   -1.0600752161    2.6632599873
C        1.2751088772   -0.0056776351    1.9487533250
C        1.3353300563   -0.0306800328    0.5566249949
N        1.7665613761   -1.0476352157    4.1357492572
O        2.2697705968   -1.9991014553    4.7413730717
O        1.2030232930   -0.0887774582    4.6714565818
C        2.5456115779   -0.0861715149   -2.2637435633
O        2.3917005764    0.0609758919   -3.4679957181
C        3.3709110835    0.8756288580   -1.4975570070
N        4.0425308990    1.6705225579   -0.9784238121
H        0.2241112333   -1.8451079864   -2.3563079126
H        1.7041573408   -2.2979474088   -3.2314937280
H        1.3099930415   -3.0826831244   -1.6761102695
H        3.0559445389   -2.9438642544    0.1215603606
H        2.9141763131   -2.9239383447    2.6224596828
H        0.7899217187    0.8053226280    2.4788061466
H        0.8838193506    0.7701876694   -0.0205677638
22   
torsion grid (-150,)
C        1.3007708627   -2.1557167153   -2.2241217806
N        2.1234635529   -1.1542939555   -1.5254091792
C        2.0319403628   -1.1072958057   -0.0987271616
C        2.5763993774   -2.1547414505    0.6574492839
C        2.4711287736   -2.1419204447    2.0448530899
C        1.8279181539   -1.0657527466    2.6602266504
C        1.2866435441   -0.0098867725    1.9282965214
C        1.3823316887   -0.0413280913    0.5381097098
N        1.7140957117   -1.0492759173    4.1300334033
O        2.1921522949   -2.0046467504    4.7497555529
O        1.1463489291   -0.0840413136    4.6497578993
C        2.4814461864   -0.0433182653   -2.2512605494
O        2.1122233120    0.2008741198   -3.3901152447
C        3.4086261371    0.8744949230   -1.5508043787
N        4.1527915368    1.6312763677   -1.0754782535
H        0.2514805292   -1.8431005133   -2.2621354265
H        1.6710716754   -2.2727253781   -3.2422667413
H        1.3754656495   -3.1038121224   -1.6905992725
H        3.0958715384   -2.9652285110    0.1552726323
H        2.8887081936   -2.9361862591    2.6521594921
H        0.7926360907    0.8058320822    2.4428474497
H        0.9462660275    0.7595132045   -0.0511290848
22   
torsion grid (-135,)
C        1.3351981662   -2.1572970832   -2.2072991502
N        2.1990394471   -1.1741820483   -1.5245633778
C        2.0747205965   -1.1186553387   -0.0984508177
C        2.5998482227   -2.1661531894    0.6717370809
C        2.4642986317   -2.1526694266    2.0561155016
C        1.8117928266   -1.0729788513    2.6560369549
C        1.2906035295   -0.0168076441    1.9104310203
C        1.4154696657   -0.0487086142    0.5223915132
N        1.6672761970   -1.0527729085    4.1227475331
O        2.1253440628   -2.0100824816    4.7545759366
O        1.0951704255   -0.0826690130    4.6286857174
C        2.4253981333   -0.0060101390   -2.2272626382
O        1.8541044352    0.3257964320   -3.2531072355
C        3.4531693798    0.8690843386   -1.6201437084
N        4.2665640540    1.5891346606   -1.2050038450
H        0.2851102888   -1.8464820372   -2.1818589912
H        1.6520272858   -2.2486998522   -3.2461593130
H        1.4409167610   -3.1192813083   -1.7048695238
H        3.1287311043   -2.9776189043    0.1812580002
H        2.8661947696   -2.9475117817    2.6731841999
H        0.7882500906    0.8011057759    2.4133035852
H        0.9905520546    0.7521790993   -0.0750338301
22   
torsion grid (-120,)
C        1.3790997318   -2.1606318815   -2.1855770902
N        2.2659784288   -1.1791658395   -1.5207683382
C        2.1117268371   -1.1204839890   -0.0955218781
C        2.6129802185   -2.1747242739    0.6826005529
C        2.4463659843   -2.1655382344    2.0631200171
C        1.7907878572   -1.0821892703    2.6539540572
C        1.2972389189   -0.0181425547    1.9013390271
C        1.4516807457   -0.0450555198    0.5157984774
N        1.6145630500   -1.0664255619    4.1167340453
O        2.0498340929   -2.0304097849    4.7547018632
O        1.0405567443   -0.0929764873    4.6143938742
C        2.3711264935    0.0317948707   -2.1980655322
O        1.6160826146    0.4323576038   -3.0663155180
C        3.4938903987    0.8709362662   -1.7258145323
N        4.3761909987    1.5575500306   -1.4051601650
H        0.3254464490   -1.8771652767   -2.0915168015
H        1.6400489198   -2.2158912937   -3.2427264846
H        1.5363268629   -3.1351214608   -1.7222325098
H        3.1465604273   -2.9882084839    0.2008037019
H        2.8273973267   -2.9666097066    2.6853888609
H        0.7919606735    0.8026731759    2.3965691987
H        1.0439363540    0.7621473561   -0.0849902138
22   
torsion grid (-105,)
C        1.4354749716   -2.1653553243   -2.1710840135
N        2.3201905345   -1.1723994384   -1.5096550822
C        2.1298984795   -1.1140078130   -0.0873292773
C        2.6063041348   -2.1796119749    0.6933260098
C        2.4167495999   -2.1804499888    2.0700572937
C        1.7660448688   -1.0921989532    2.6586155985
C        1.2996157555   -0.0169903089    1.9054832374
C        1.4755571069   -0.0333651953    0.5217289786
N        1.5700335901   -1.0821807678    4.1178795512
O        1.9827060538   -2.0567600634    4.7552137741
O        1.0042868436   -0.1029865899    4.6143403662
C        2.3220106052    0.0686457602   -2.1652484089
O        1.4224545138    0.5229628489   -2.8457292014
C        3.5257368004    0.8716868817   -1.8660221003
N        4.4685772243    1.5218575050   -1.6620723206
H        0.3774154086   -1.9116850236   -2.0492147642
H        1.6767682161   -2.2012486007   -3.2342994171
H        1.6288084262   -3.1431947510   -1.7292352190
H        3.1397413661   -2.9948951314    0.2146387698
H        2.7779633757   -2.9911351103    2.6917894280
H        0.7978644079    0.8072110068    2.3987113472
H        1.0855778452    0.7848207167   -0.0751799380
22   
torsion grid (-90,)
C        0.9930335525   -0.2553246405   -2.3662185704
N        2.1973423760   -0.5179968166   -1.5611530445
C        2.0338638096   -0.7596485239   -0.1701986102
C        3.1634469817   -1.0551887495    0.6218625752
C        3.0282838370   -1.2842700627    1.9841893011
C        1.7615894096   -1.2007544184    2.5694366728
C        0.6346761253   -0.8940643404    1.8094116430
C        0.7692297265   -0.6779818626    0.4397100337
N        1.6167196955   -1.4339946592    4.0090706108
O        2.6375241906   -1.7035010651    4.6531582491
O        0.4826375248   -1.3481941623    4.4957365036
C        3.1438069854   -1.3565086848   -2.2163992873
O        4.3199713695   -1.1123773924   -2.3382656180
C        2.5554316837   -2.5667864294   -2.8351043942
N        2.0508489949   -3.5124174459   -3.2887117922
H        0.5284842971    0.6626324828   -2.0008183639
H        1.2938436701   -0.0824105131   -3.4007828993
H        0.2636244016   -1.0742871496   -2.3382495783
H        4.1493032767   -1.0856564576    0.1716792301
H        3.8900671993   -1.5125584125    2.6003768818
H       -0.3353073547   -0.8365289073    2.2894272558
H       -0.1183001092   -0.4560489110   -0.1390288896
22   
torsion grid (-75,)
C        0.9861536033   -0.3078353326   -2.3368721723
N        2.1928450595   -0.6169297463   -1.5516019898
C        2.0406384942   -0.8070695410   -0.1466132712
C        3.1736262097   -1.0504843562    0.6571625474
C        3.0355662498   -1.2418311128    2.0255609068
C        1.7655013366   -1.1667807203    2.6034154980
C        0.6360444339   -0.9051037597    1.8312864405
C        0.7727480736   -0.7269209955    0.4562671620
N        1.6188582947   -1.3577681570    4.0499824972
O        2.6409958334   -1.5922451980    4.7050230350
O        0.4819406151   -1.2724936667    4.5297159281
C        3.1308603857   -1.4468274947   -2.2052341334
O        4.3350368321   -1.3266044039   -2.1457491287
C        2.5322682851   -2.4583746889   -3.1063071313
N        2.0484410874   -3.2739726548   -3.7807557415
H        0.5576747834    0.6191485874   -1.9512799410
H        1.2744564864   -0.1310830182   -3.3733995519
H        0.2317896118   -1.1025554954   -2.3074228672
H        4.1596887811   -1.0745409416    0.2092377276
H        3.8995986481   -1.4316843853    2.6515868149
H       -0.3370388011   -0.8516339582    2.3053614974
H       -0.1175726603   -0.5402760826   -0.1302362173
22   
torsion grid (-60,)
C        0.9779630756   -0.3443342638   -2.3131229713
N        2.1730502920   -0.7296554696   -1.5434574216
C        2.0386562655   -0.8664043737   -0.1289682832
C        3.1764278947   -1.0613677896    0.6801642007
C        3.0401673119   -1.2066733297    2.0556223099
C        1.7702723925   -1.1342388563    2.6316150540
C        0.6349512332   -0.9217276905    1.8524895515
C        0.7695414554   -0.7873387485    0.4729040066
N        1.6278655600   -1.2737626902    4.0856152979
O        2.6551194662   -1.4551395603    4.7488085839
O        0.4884913559   -1.2021525143    4.5612401048
C        3.1023690483   -1.5460163403   -2.2019521391
O        4.2995165873   -1.5756940048   -1.9930474476
C        2.5408518310   -2.3354069964   -3.3221202675
N        2.1114232348   -2.9971628077   -4.1774075440
H        0.5851925356    0.5814444110   -1.8894732517
H        1.2680216733   -0.1392667047   -3.3430644909
H        0.1958351173   -1.1113492539   -2.3102569197
H        4.1602339451   -1.0885906342    0.2304706347
H        3.9078246304   -1.3581356807    2.6870842514
H       -0.3390757096   -0.8712584433    2.3248661525
H       -0.1245775527   -0.6396353806   -0.1188815018
22   
torsion grid (-45,)
C        0.9635855239   -0.3776299910   -2.2913393887
N        2.1415018991   -0.8407343045   -1.5374946239
C        2.0295835623   -0.9306549711   -0.1173551402
C        3.1730687852   -1.0845373807    0.6919238704
C        3.0416379687   -1.1802663258    2.0733518742
C        1.7745255677   -1.1041770016    2.6523608252
C        0.6321070569   -0.9356644017    1.8722128293
C        0.7620783413   -0.8472869847    0.4892703626
N        1.6406055145   -1.1930052168    4.1120678325
O        2.6746075091   -1.3335557979    4.7740354366
O        0.5027971574   -1.1211940410    4.5910114120
C        3.0684110229   -1.6352553460   -2.2056431243
O        4.2270405146   -1.8252228872   -1.8799209172
C        2.5828143956   -2.1996609992   -3.4858696470
N        2.2361358734   -2.7000218892   -4.4773835789
H        0.6099384359    0.5487056097   -1.8363810844
H        1.2565655312   -0.1536847603   -3.3158104725
H        0.1523192249   -1.1127527825   -2.3083701491
H        4.1540820016   -1.1231333675    0.2400803258
H        3.9137257070   -1.2981912016    2.7058477553
H       -0.3408526159   -0.8826502916    2.3464083518
H       -0.1361573338   -0.7332927899   -0.1038748404
22   
torsion grid (-30,)
C        0.9708498285   -0.3719127159   -2.2790251986
N        2.1054443231   -0.9437479130   -1.5328526105
C        2.0114677766   -0.9950427744   -0.1095297152
C        3.1653098445   -1.0785745844    0.6924060330
C        3.0486904687   -1.1247198477    2.0785109837
C        1.7830273503   -1.0749700184    2.6625597529
C        0.6279073377   -0.9800417615    1.8876782783
C        0.7454387103   -0.9393411767    0.5017156502
N        1.6622710403   -1.1162712854    4.1267147699
O        2.7022881352   -1.2172577153    4.7859495928
O        0.5268292041   -1.0480707792    4.6110831448
C        3.0030085544   -1.7625981922   -2.1972050796
O        4.0707950933   -2.1710674967   -1.7716128464
C        2.6209279829   -2.0852753904   -3.5913375781
N        2.3721950760   -2.4040541870   -4.6821835196
H        0.6503846162    0.5384984728   -1.7713783156
H        1.2954306462   -0.1004088948   -3.2822967292
H        0.1267706865   -1.0646060026   -2.3574213331
H        4.1430131099   -1.1063887529    0.2334726928
H        3.9283943084   -1.1869618747    2.7083145592
H       -0.3424276429   -0.9474227523    2.3689565182
H       -0.1578948064   -0.8836314795   -0.0933911408
22   
torsion grid (-15,)
C        0.9509408419   -0.3909299169   -2.2687598484
N        2.0488247600   -1.0386389891   -1.5307488666
C        1.9803486487   -1.0604464347   -0.1059782811
C        3.1459435072   -1.1064048222    0.6802136361
C        3.0491257458   -1.1048595094    2.0684778484
C        1.7907882019   -1.0521004507    2.6686006587
C        0.6232518860   -0.9992925338    1.9085544363
C        0.7227427627   -1.0031111303    0.5204257285
N        1.6916684520   -1.0468294015    4.1354596223
O        2.7429506433   -1.1144406252    4.7808490899
O        0.5629922288   -0.9739933266    4.6344719410
C        2.9550839948   -1.8373374548   -2.1971652164
O        3.9172240221   -2.4111384102   -1.7118398454
C        2.7181541128   -1.9525973633   -3.6547653562
N        2.5946355272   -2.1127870303   -4.8003816066
H        0.6696191727    0.5214657440   -1.7418948401
H        1.2907242542   -0.1160757583   -3.2659919184
H        0.0768907106   -1.0429170936   -2.3638694853
H        4.1183828991   -1.1436277434    0.2102654570
H        3.9377712088   -1.1353780000    2.6879118073
H       -0.3405395386   -0.9639287057    2.4025466889
H       -0.1874023986   -0.9784981661   -0.0672537407
22   
torsion grid (0,)
C        0.6715753459   -1.0428274420   -2.2579647894
N        1.9579841515   -1.0447515344   -1.5421771448
C        1.9344168393   -1.0455944905   -0.1166484146
C        2.9484909041   -1.6708570218    0.6309847326
C        2.8791715779   -1.6874670613    2.0200888277
C        1.7982460858   -1.0793289993    2.6600579911
C        0.7815810077   -0.4559694381    1.9384577262
C        0.8534808900   -0.4413367700    0.5484514217
N        1.7270000447   -1.0985591758    4.1283108311
O        2.6506416002   -1.6448900587    4.7405604394
O        0.7463873021   -0.5676385335    4.6617594203
C        3.1486907087   -0.9251736899   -2.2238057539
O        4.2599491672   -0.8123549266   -1.7298425456
C        3.0216927131   -0.9248727038   -3.6997698373
N        3.0204374420   -0.9099172142   -4.8630229517
H        0.2532769153   -0.0342933805   -2.3326296608
H        0.8071754826   -1.4366892207   -3.2638380513
H       -0.0286609262   -1.6893546125   -1.7276095072
H        3.7856429254   -2.1392274249    0.1324990100
H        3.6491298593   -2.1704797896    2.6100681200
H       -0.0424771647    0.0125030283    2.4633826533
H        0.0702013870    0.0569386864   -0.0111120648
22   
torsion grid (15,)
C        0.7060409673   -0.9328895543   -2.2579035067
N        1.9828123954   -1.0287045328   -1.5297824361
C        1.9435423933   -1.0525591136   -0.1039495410
C        2.9498873654   -1.6908739486    0.6435230100
C        2.8737532358   -1.7167597891    2.0328309262
C        1.7919280168   -1.1109164540    2.6723170201
C        0.7802876247   -0.4787845113    1.9508154982
C        0.8599290097   -0.4525151592    0.5616620666
N        1.7123217388   -1.1430621722    4.1400050105
O        2.6339080851   -1.6932371520    4.7517876541
O        0.7279832335   -0.6187208773    4.6732677627
C        3.1749985959   -0.8166204531   -2.1908638897
O        4.2966447193   -0.8872880574   -1.7139681019
C        3.0327930288   -0.5099585573   -3.6330037582
N        3.0121496292   -0.2449230137   -4.7655620886
H        0.3268499270    0.0933289250   -2.2921462891
H        0.8373440245   -1.2898841525   -3.2780714628
H       -0.0240365156   -1.5750968712   -1.7641556347
H        3.7839942275   -2.1616595275    0.1430588452
H        3.6385888954   -2.2082781424    2.6225425240
H       -0.0454403069   -0.0124673023    2.4751237669
H        0.0803146499    0.0537637423    0.0047203304
22   
torsion grid (30,)
C        0.7116726880   -0.9615049615   -2.2712406994
N        1.9772493563   -1.1393261964   -1.5380945308
C        1.9341094696   -1.1246565712   -0.1114585635
C        2.9488951215   -1.7301754164    0.6532288890
C        2.8824183898   -1.7046700773    2.0432272338
C        1.7990975415   -1.0871634698    2.6681915155
C        0.7773168259   -0.4922691837    1.9293654658
C        0.8470882014   -0.5133120420    0.5397299418
N        1.7273892478   -1.0681052615    4.1361213941
O        2.6559854424   -1.5885503467    4.7632338069
O        0.7417861399   -0.5322223542    4.6556396500
C        3.1730969163   -0.9025031025   -2.1950461413
O        4.2928687400   -1.1633225599   -1.7873893380
C        3.0220161557   -0.3467296884   -3.5596732414
N        2.9802430650    0.1169244498   -4.6258385189
H        0.3818911185    0.0821285491   -2.2948689227
H        0.8316859032   -1.3143368813   -3.2943606147
H       -0.0516395081   -1.5748647216   -1.7912555810
H        3.7801324623   -2.2158840158    0.1628442478
H        3.6554011785   -2.1685083173    2.6446575047
H       -0.0503076600   -0.0159571667    2.4415940095
H        0.0581981452   -0.0330973390   -0.0263598012
22   
torsion grid (45,)
C        0.7100932583   -0.9668676608   -2.2847453069
N        1.9550604534   -1.2456450999   -1.5480004572
C        1.9149810888   -1.1872398501   -0.1221594111
C        2.9540696644   -1.7383151838    0.6534574067
C        2.9034229527   -1.6651144664    2.0416977007
C        1.8081635304   -1.0591386517    2.6579832072
C        0.7619838528   -0.5213795361    1.9103161094
C        0.8162134111   -0.5876303695    0.5211017275
N        1.7496273212   -0.9938920078    4.1240779630
O        2.6891966910   -1.4849676518    4.7589853255
O        0.7632205407   -0.4516164418    4.6358605395
C        3.1616902248   -1.0261491800   -2.2063143607
O        4.2453865014   -1.4957830343   -1.9072650401
C        3.0456817561   -0.2233477128   -3.4454495156
N        3.0118887201    0.4354995061   -4.4037814093
H        0.4289721258    0.0912197326   -2.2638971301
H        0.8277583104   -1.2793931621   -3.3212601353
H       -0.0877676103   -1.5665235630   -1.8445768310
H        3.7903355249   -2.2227045384    0.1694625951
H        3.6960979540   -2.0860889366    2.6491040059
H       -0.0747455067   -0.0528324633    2.4149723017
H        0.0052641756   -0.1501964029   -0.0473215791
22   
torsion grid (60,)
C        0.7028750948   -0.9839463765   -2.3051833499
N        1.9182953999   -1.3543532444   -1.5604577921
C        1.8864689392   -1.2456170185   -0.1375540158
C        2.9502016234   -1.7464698757    0.6401830871
C        2.9212226278   -1.6272355385    2.0245639485
C        1.8197142141   -1.0290498268    2.6397781986
C        0.7486551494   -0.5459400191    1.8910604439
C        0.7820592745   -0.6548422339    0.5030941490
N        1.7828298852   -0.9156725829    4.1025402703
O        2.7456889717   -1.3597742126    4.7378759376
O        0.7906279422   -0.3822866266    4.6129829154
C        3.1394092292   -1.1402845905   -2.2136119774
O        4.1599083533   -1.7788300797   -2.0446536570
C        3.0941604921   -0.1114190552   -3.2778474194
N        3.0908432718    0.7242621770   -4.0874610983
H        0.4651848637    0.0835267364   -2.2415703960
H        0.8297245448   -1.2558937572   -3.3525261021
H       -0.1290789972   -1.5690758394   -1.9098484477
H        3.7878342092   -2.2339051786    0.1589059295
H        3.7339951707   -2.0076474171    2.6321792631
H       -0.0933422168   -0.0845562498    2.3936322429
H       -0.0506831020   -0.2590958648   -0.0638344240
22   
torsion grid (75,)
C        0.6899105991   -1.0168484423   -2.3309220790
N        1.8733257091   -1.4588478973   -1.5743116078
C        1.8555954114   -1.2954109814   -0.1579236608
C        2.9420134358   -1.7521180986    0.6167389491
C        2.9365889791   -1.5931461083    1.9961861736
C        1.8330305808   -0.9980115886    2.6130995969
C        0.7397338904   -0.5602980624    1.8691702400
C        0.7512145549   -0.7071451975    0.4837481514
N        1.8204799694   -0.8390166272    4.0708659696
O        2.8086257219   -1.2336605571    4.7006657473
O        0.8226617215   -0.3190208945    4.5846273528
C        3.1092534765   -1.2390384689   -2.2222436858
O        4.0528273302   -1.9990262834   -2.2094655195
C        3.1559711958   -0.0159475993   -3.0561313242
N        3.1922092259    0.9681708881   -3.6761083447
H        0.4907111813    0.0571590294   -2.2396601167
H        0.8310265153   -1.2629061800   -3.3836697089
H       -0.1729406180   -1.5817413748   -1.9732001040
H        3.7801472480   -2.2429344851    0.1369843033
H        3.7674851707   -1.9386026023    2.6001508803
H       -0.1034395969   -0.1027375086    2.3733510079
H       -0.0998367613   -0.3469776342   -0.0797045150
22   
torsion grid (90,)
C        0.6669863605   -1.0635526385   -2.3627493378
N        1.8233413593   -1.5437500290   -1.5883592679
C        1.8241539554   -1.3301145832   -0.1833120791
C        2.9358092592   -1.7411586804    0.5821649204
C        2.9531873589   -1.5517833094    1.9571271060
C        1.8481453627   -0.9654489950    2.5809004559
C        0.7328035248   -0.5669654020    1.8468310144
C        0.7219455016   -0.7447151004    0.4651171510
N        1.8600620147   -0.7716613252    4.0335599021
O        2.8655955102   -1.1371252915    4.6539393261
O        0.8645460011   -0.2537657976    4.5542153985
C        3.0710333711   -1.3202206386   -2.2377188545
O        3.9233979659   -2.1577399281   -2.4103792677
C        3.2347667159    0.0476620621   -2.7816053907
N        3.3252324206    1.1391733869   -3.1753090880
H        0.5019644565    0.0173444600   -2.2735515312
H        0.8203527536   -1.3141996632   -3.4136372708
H       -0.2212396363   -1.5997446985   -2.0228518143
H        3.7770977939   -2.2267238613    0.1005310504
H        3.8028597392   -1.8636813202    2.5531546913
H       -0.1097697834   -0.1143665015    2.3565582529
H       -0.1456770646   -0.4155688199   -0.0923776609
22   
torsion grid (105,)
C        0.7881952249   -1.2625728914   -2.2190852739
N        1.9529318107   -0.6489790214   -1.5315114267
C        1.9090046336   -0.8087667629   -0.1053765164
C        2.7660599492   -1.6975704289    0.5598204702
C        2.6908277508   -1.8354742253    1.9459392984
C        1.7429662662   -1.0914860993    2.6449670629
C        0.8759030784   -0.2035183746    2.0014583543
C        0.9721908351   -0.0576057503    0.6229032724
N        1.6522379936   -1.2427117842    4.1065675705
O        2.4391079183   -2.0233246251    4.6513929457
O        0.7933054538   -0.5800119763    4.6977005072
C        3.1741787474   -0.9853743184   -2.1359083014
O        3.4031073186   -1.9899024537   -2.7817017346
C        4.2503427582   -0.0214968754   -1.8254827675
N        5.1138796717    0.7276105684   -1.6100761091
H       -0.1209606120   -0.8116726663   -1.8206150383
H        0.8534517776   -1.0473313529   -3.2865056072
H        0.7535934699   -2.3468393272   -2.0710030661
H        3.4786699617   -2.2980028254    0.0035512357
H        3.3433614632   -2.5155647391    2.4808179725
H        0.1620934332    0.3673714382    2.5835345763
H        0.3358374707    0.6514827612    0.1026998002
22   
torsion grid (120,)
C        0.7783389050   -1.3210347255   -2.2279616936
N        1.9337833605   -0.6991502609   -1.5419756142
C        1.9007111245   -0.8246769150   -0.1132402211
C        2.7499024317   -1.7198176208    0.5526867358
C        2.6873340081   -1.8389848497    1.9405698237
C        1.7584344588   -1.0711321953    2.6403382650
C        0.8999682579   -0.1773130009    1.9947734213
C        0.9826549983   -0.0508314070    0.6125064366
N        1.6767075595   -1.2066783691    4.1051620369
O        2.4525084135   -1.9965796129    4.6519504048
O        0.8344524195   -0.5228636966    4.6957362899
C        3.1524553331   -0.9256884172   -2.1738148492
O        3.3734573022   -1.7809990820   -3.0129192544
C        4.2358530748   -0.0430904853   -1.6894610768
N        5.1143421904    0.6423653277   -1.3561232483
H       -0.1367691054   -0.9073468953   -1.8033082147
H        0.8251913268   -1.0813898544   -3.2905755297
H        0.7782104726   -2.4093936420   -2.1062912794
H        3.4472433441   -2.3351729980   -0.0075032788
H        3.3339415758   -2.5230191191    2.4774956346
H        0.2014504647    0.4117597049    2.5771820881
H        0.3501144586    0.6592963841    0.0888603489
22   
torsion grid (135,)
C        0.7725967884   -1.3660603271   -2.2528127820
N        1.9204991395   -0.7660407908   -1.5444588641
C        1.8920019188   -0.8613189446   -0.1156494644
C        2.7349305581   -1.7543391952    0.5600628816
C        2.6849979520   -1.8452188009    1.9502710752
C        1.7721077932   -1.0511564446    2.6425039625
C        0.9176063431   -0.1613367988    1.9871049798
C        0.9878110212   -0.0646744979    0.6011794527
N        1.7028516355   -1.1553387461    4.1111555942
O        2.4744070323   -1.9425161123    4.6674289848
O        0.8739152256   -0.4498302514    4.6947596949
C        3.1313533907   -0.8661881914   -2.2022025941
O        3.3392944148   -1.5319048593   -3.2034684813
C        4.2205386159   -0.0830847178   -1.5768456884
N        5.1114141895    0.5281359004   -1.1464883983
H       -0.1463394176   -1.0132727182   -1.7837556091
H        0.7954111036   -1.0535670091   -3.2968016521
H        0.8072933642   -2.4600495558   -2.2086351939
H        3.4209023855   -2.3855856315    0.0033552184
H        3.3286884729   -2.5257649698    2.4950074923
H        0.2311456662    0.4470990840    2.5638577650
H        0.3568587815    0.6402718480    0.0685188518
22   
torsion grid (150,)
C        0.7662617907   -1.3992428934   -2.2687718148
N        1.9208946806   -0.8443707648   -1.5427522879
C        1.8943097502   -0.9075653002   -0.1140305260
C        2.7347160864   -1.7900000897    0.5780912989
C        2.6888155232   -1.8496054991    1.9699043150
C        1.7819485339   -1.0368277805    2.6485362161
C        0.9297212301   -0.1579402887    1.9764633293
C        0.9950442150   -0.0927884418    0.5880812214
N        1.7162416468   -1.1101492775    4.1196062769
O        2.4841412518   -1.8920391428    4.6880271322
O        0.8939439125   -0.3876528969    4.6916421687
C        3.1103419086   -0.8032363989   -2.2303362373
O        3.2882308319   -1.2527713044   -3.3524864819
C        4.2122520187   -0.1238739127   -1.5114259125
N        5.1189165019    0.4140474092   -1.0204833800
H       -0.1479932480   -1.0827767020   -1.7658759600
H        0.7753688588   -1.0249113569   -3.2921928249
H        0.8072827949   -2.4937506078   -2.2913806050
H        3.4175587417   -2.4332646333    0.0316135782
H        3.3313508938   -2.5208945844    2.5272632497
H        0.2475001738    0.4658312508    2.5417010927
H        0.3634382777    0.6020414855    0.0428933764
22   
torsion grid (165,)
C        0.7626460020   -1.4302290087   -2.2874463688
N        1.9285852004   -0.9350473956   -1.5412483560
C        1.8959829107   -0.9644679913   -0.1123248859
C        2.7313426534   -1.8359897749    0.5984527729
C        2.6900685852   -1.8611984559    1.9912642381
C        1.7911443286   -1.0245272030    2.6512454305
C        0.9422945392   -0.1566605961    1.9611676440
C        1.0030330807   -0.1271999242    0.5710591831
N        1.7312623224   -1.0597575508    4.1240550880
O        2.4944681261   -1.8354397300    4.7069755006
O        0.9199967577   -0.3140987008    4.6819223007
C        3.0862262009   -0.7320903067   -2.2449014921
O        3.2271506631   -0.9517652905   -3.4396646075
C        4.2030052207   -0.1610525145   -1.4575197134
N        5.1270633293    0.2974074280   -0.9205404728
H       -0.1447475980   -1.1544387632   -1.7494624081
H        0.7579390267   -0.9828413961   -3.2811820676
H        0.8034867088   -2.5201222065   -2.3892815650
H        3.4097648131   -2.4933369402    0.0637135437
H        3.3302571310   -2.5222410146    2.5633379225
H        0.2663602169    0.4857314683    2.5129939092
H        0.3729561559    0.5576241369    0.0114716292
22   
torsion grid (180,)
C        0.8269029903   -1.5699726526   -2.2816043162
N        1.9706792887   -1.0449766792   -1.5202319882
C        1.9278397996   -1.0538112191   -0.0952806784
C        2.9806625905   -1.6096437620    0.6447591996
C        2.9283875251   -1.6156036820    2.0365399135
C        1.8040030430   -1.0880963707    2.6709427792
C        0.7348968722   -0.5504429060    1.9520677175
C        0.8037290704   -0.5312929821    0.5620893537
N        1.7377336332   -1.1067600626    4.1425260443
O        2.6972025191   -1.5888821114    4.7522268493
O        0.7257025135   -0.6401761577    4.6757093067
C        2.9864950341   -0.4762017689   -2.2439057513
O        3.0392575041   -0.4595287635   -3.4658801421
C        4.0550698588    0.1773924780   -1.4564002985
N        4.9312913802    0.7347269733   -0.9329568641
H        0.1420364735   -0.7664305217   -2.5715791639
H        1.1968874677   -2.0501802050   -3.1879184421
H        0.3011113089   -2.2982860358   -1.6641296990
H        3.8337715130   -2.0437835760    0.1344615840
H        3.7334472524   -2.0351097432    2.6280963950
H       -0.1197464575   -0.1462846323    2.4816106697
H       -0.0075810527   -0.0979359350   -0.0144278568
