24   
torsion grid (-165,)
C        3.3377216682    0.2750747585   -0.9296695556
C        3.3079008054    1.1164805518   -1.9770542250
C        2.6575468976   -3.3727302927   -1.2997848445
C        2.8201050157    2.5371022264   -1.8229584338
C        3.7453727271    0.7392655473   -3.3712534435
C        4.2962218997   -1.5596884804    0.4595107244
C        3.8102944286   -1.1649577431   -0.9435468178
N        1.3832682186   -3.9320031065   -1.4805266821
N        2.6885593282   -1.9997084954   -1.4384044504
O        3.6395383148   -4.0663091644   -1.0446434387
H        2.9901277558    0.6390151834    0.0377370858
H        3.6048017341    3.2496256967   -2.1079291851
H        1.9655654224    2.7320538911   -2.4835703483
H        2.5170283254    2.7560741583   -0.7954656810
H        2.9255743191    0.9013994924   -4.0824260238
H        4.0572465882   -0.3027213395   -3.4534043100
H        4.5742367086    1.3789622667   -3.7001452570
H        4.6722193361   -2.5821118941    0.4730446632
H        3.4791866039   -1.4765604257    1.1857238541
H        5.0967832658   -0.8783212848    0.7673538317
H        4.6431819422   -1.2886906027   -1.6418666667
H        1.4445866923   -4.9318484050   -1.6372779187
H        0.7790454849   -3.4671558225   -2.1498588972
H        1.7895728974   -1.5350969264   -1.3870516787
24   
torsion grid (-150,)
C        3.2288531215    0.1835009733   -1.0446847175
C        3.3126439622    1.1273761091   -1.9978283529
C        2.5291078667   -3.4384891924   -1.0875497993
C        2.7174033290    2.4990875602   -1.7823314868
C        3.9867096616    0.9379029683   -3.3353116135
C        4.4226088149   -1.5512583711    0.2705993009
C        3.7855524664   -1.2219719009   -1.0886588858
N        1.2298697321   -3.9420111795   -1.2715881463
N        2.6667629512   -2.1206034058   -1.4690104645
O        3.4278102371   -4.1373168789   -0.6254477703
H        2.7066740796    0.4299021643   -0.1187438550
H        3.4908293662    3.2740352296   -1.8595773059
H        1.9686078115    2.7264104228   -2.5518819166
H        2.2415042869    2.5891302815   -0.8021398072
H        3.2863928131    1.1690253811   -4.1476969919
H        4.3588921781   -0.0754963688   -3.4916705606
H        4.8288632441    1.6332426983   -3.4426553289
H        4.8849455472   -2.5368968725    0.2695556414
H        3.6693437688   -1.5276061497    1.0657124461
H        5.1796662499   -0.7914795535    0.4915769157
H        4.5611587266   -1.3039720681   -1.8556784085
H        1.2305639567   -4.9555455036   -1.2450477221
H        0.7103220965   -3.5740381863   -2.0614990289
H        1.8006001124   -1.6257783680   -1.6419098401
24   
torsion grid (-135,)
C        2.8158775796    0.3086827037   -1.1628123528
C        2.8959882569    1.0122022063   -2.3054854260
C        1.7942558000   -2.9353813287    0.1128385925
C        2.3822600682    2.4316816023   -2.3739180088
C        3.4907581199    0.5020372211   -3.5966009909
C        4.1843151625   -1.1254518100    0.3410339716
C        3.2891435844   -1.1034876450   -0.9060265013
N        0.4511316088   -3.3549413994    0.0717862443
N        2.0803562847   -1.9578444597   -0.8145512597
O        2.5848274699   -3.4126906662    0.9224313614
H        2.3579981959    0.7846673167   -0.2940495564
H        3.1872583656    3.1233409290   -2.6538877123
H        1.6041675452    2.5295982305   -3.1418807630
H        1.9657230343    2.7622419803   -1.4187021256
H        2.7699000847    0.6126764584   -4.4163486117
H        3.7927451310   -0.5454073742   -3.5527871799
H        4.3705742975    1.0966601515   -3.8734265650
H        4.5871753069   -2.1182173185    0.5355507225
H        3.6309427136   -0.8087707780    1.2296947821
H        5.0069305301   -0.4223743292    0.1738400795
H        3.8868857163   -1.4610570358   -1.7503684621
H        0.3371408530   -4.2283525272    0.5739341882
H        0.0121920876   -3.3746593436   -0.8427320611
H        1.2776174727   -1.5532339825   -1.2799341362
24   
torsion grid (-120,)
C        2.7552207518    0.2713186790   -1.1945158915
C        2.8949659124    1.0300049501   -2.2953748826
C        1.6802273941   -2.7937405572    0.2658801575
C        2.3523790848    2.4400676645   -2.3321913230
C        3.5906139460    0.5999691240   -3.5655317952
C        4.2365141320   -1.1975156265    0.1935896405
C        3.2370415917   -1.1429810006   -0.9681819162
N        0.4184899239   -3.3936822630    0.0846856751
N        2.0495118854   -2.0100607459   -0.8039719259
O        2.3213552389   -2.9594705951    1.3001263302
H        2.2333027275    0.6971568991   -0.3359544033
H        3.1573181277    3.1624627265   -2.5197463666
H        1.6279880207    2.5593121108   -3.1483244900
H        1.8608592732    2.7130742759   -1.3946560048
H        2.9247447797    0.7299856365   -4.4279909638
H        3.9255697722   -0.4384645676   -3.5510278602
H        4.4681371350    1.2320247126   -3.7520067548
H        4.5918852161   -2.2133021129    0.3724285566
H        3.7978906603   -0.8304240537    1.1227566190
H        5.0856990846   -0.5606466391   -0.0746270329
H        3.7607803758   -1.5009821803   -1.8604533114
H        0.2663400074   -4.1132747834    0.7826000264
H        0.2075559146   -3.7155967125   -0.8540670167
H        1.3117743137   -1.8033161394   -1.4658468370
24   
torsion grid (-105,)
C        2.7307575173    0.2435745444   -1.2091892035
C        2.8938613334    1.0393668918   -2.2799915053
C        1.5904423883   -2.6531294811    0.3097072859
C        2.3309406991    2.4419435189   -2.2885592775
C        3.6358657060    0.6617178067   -3.5407985106
C        4.2615599545   -1.2709713190    0.1026494159
C        3.2191712215   -1.1737438305   -1.0173235955
N        0.4232757558   -3.4123824586    0.0990110883
N        2.0558942737   -2.0688238931   -0.8464509060
O        2.0783429901   -2.5264915786    1.4298889192
H        2.1798265278    0.6348952603   -0.3525122280
H        3.1293210226    3.1823317005   -2.4281420055
H        1.6293302000    2.5766208804   -3.1221337653
H        1.8068577968    2.6767615266   -1.3583612342
H        2.9943341243    0.8047644449   -4.4195890255
H        3.9929059542   -0.3696447371   -3.5478461736
H        4.5057333203    1.3159787631   -3.6809648256
H        4.5611944402   -2.3079885227    0.2744842509
H        3.8880731783   -0.8705603479    1.0446239354
H        5.1386966414   -0.6954156601   -0.2100180448
H        3.7092832718   -1.5143476717   -1.9345793076
H        0.2100353154   -3.9687441133    0.9194880511
H        0.3980106752   -3.9582202368   -0.7557980449
H        1.3924509611   -2.0255726853   -1.6099970640
24   
torsion grid (-90,)
C        2.6907802546    0.1886403100   -1.2382187736
C        2.8878271402    1.0344355206   -2.2636809205
C        1.5249814380   -2.5254621740    0.3103979053
C        2.2873481024    2.4212835305   -2.2451820940
C        3.7088465208    0.7306427406   -3.4950894678
C        4.2878344580   -1.3380114786    0.0001027060
C        3.2078290075   -1.2230119045   -1.0830009492
N        0.4215782377   -3.3846403462    0.1629163472
N        2.0796884222   -2.1578807329   -0.8958736374
O        1.8989890805   -2.1384297576    1.4150273222
H        2.0912452253    0.5283313325   -0.3927725499
H        3.0709952449    3.1877393258   -2.3054403068
H        1.6310927629    2.5750248059   -3.1118495944
H        1.7041401644    2.6004172968   -1.3380931450
H        3.1119344433    0.8857802383   -4.4028504552
H        4.1031765659   -0.2869766878   -3.5197899834
H        4.5616766442    1.4181385960   -3.5622097887
H        4.5793889521   -2.3830365334    0.1452678124
H        3.9476962052   -0.9441764422    0.9567173886
H        5.1636345021   -0.7717927213   -0.3322041264
H        3.6692734361   -1.5424537577   -2.0218994971
H        0.1506441639   -3.7767701852    1.0578722644
H        0.5042457541   -4.0891749323   -0.5622753069
H        1.4713185434   -2.2466972416   -1.7002729207
24   
torsion grid (-75,)
C        2.7030234675    0.1359738801   -1.2311891240
C        2.8777286913    1.0077334974   -2.2387159876
C        1.4755155084   -2.4080940224    0.2561970247
C        2.2453310420    2.3796684205   -2.1877946836
C        3.6999016598    0.7505814828   -3.4800521205
C        4.3406213883   -1.3836901172   -0.0329135853
C        3.2556257814   -1.2654827307   -1.1119015469
N        0.3942005143   -3.2963455732    0.1463213635
N        2.1641074041   -2.2466154075   -0.9298621828
O        1.7369966470   -1.8299254295    1.3085635010
H        2.1017712114    0.4421607350   -0.3753086838
H        3.0107290796    3.1654577920   -2.2330996640
H        1.5825305534    2.5374839508   -3.0488030315
H        1.6613139746    2.5244781211   -1.2751334588
H        3.0916791063    0.8993813201   -4.3814345670
H        4.1279584419   -0.2527401407   -3.5238400059
H        4.5287491994    1.4672630529   -3.5424704577
H        4.6651312444   -2.4248879159    0.0677717645
H        3.9809351846   -1.0378570507    0.9355703923
H        5.1999796759   -0.7761450567   -0.3333246992
H        3.7164232969   -1.5567049806   -2.0595514169
H        0.0316582188   -3.5420014047    1.0607731775
H        0.5452564123   -4.1051497902   -0.4468934590
H        1.6189975658   -2.4226238308   -1.7653103201
24   
torsion grid (-60,)
C        2.7277383950    0.0903848639   -1.2079651400
C        2.8639040264    0.9740364818   -2.2111946189
C        1.4357951647   -2.3126399548    0.1918734211
C        2.2144062577    2.3366656924   -2.1296946166
C        3.6556897426    0.7425853659   -3.4770991543
C        4.4058942095   -1.3958881594   -0.0430435014
C        3.3147493680   -1.2993930957   -1.1199703706
N        0.3519403553   -3.1942934819    0.0822199741
N        2.2679614137   -2.3290090206   -0.9140093725
O        1.5960276489   -1.5978032214    1.1784975245
H        2.1465352102    0.3773645025   -0.3338837920
H        2.9671574817    3.1339633239   -2.1863474324
H        1.5273479859    2.4938424010   -2.9716462913
H        1.6521286861    2.4632684700   -1.2008954009
H        3.0200277543    0.8886745024   -4.3598182112
H        4.0994500281   -0.2527382799   -3.5429244051
H        4.4700154598    1.4742377901   -3.5561129606
H        4.7884505301   -2.4202839087    0.0188561819
H        4.0155732535   -1.1082990765    0.9340133711
H        5.2312846814   -0.7265556892   -0.3048316458
H        3.7718571342   -1.5718937993   -2.0740325497
H       -0.1056912875   -3.3263604725    0.9771310790
H        0.5342118506   -4.0668563305   -0.4016858838
H        1.8037099191   -2.6110901016   -1.7698379752
24   
torsion grid (-45,)
C        2.8357447728    0.0989806535   -1.1212110497
C        2.8523720637    0.9395489666   -2.1698211585
C        1.3876113212   -2.2248114927    0.0676826722
C        2.2385388541    2.3165064995   -2.0569667814
C        3.4556495970    0.6446468885   -3.5234504578
C        4.4877163385   -1.3819381492    0.0513726090
C        3.4255889360   -1.2906421533   -1.0561537056
N        0.3173097231   -3.1045743103   -0.1451260195
N        2.4059227743   -2.3573769148   -0.8627000547
O        1.3957360159   -1.4258884075    1.0006730515
H        2.3657924803    0.4264755859   -0.1980628639
H        2.9876125200    3.0965668787   -2.2470004657
H        1.4460479304    2.4539951885   -2.8043222941
H        1.8084119762    2.4887078435   -1.0670252816
H        2.6994725281    0.7582941275   -4.3107791432
H        3.8784992192   -0.3582732675   -3.6091008599
H        4.2530051837    1.3632777207   -3.7525184652
H        4.9231617058   -2.3860527248    0.0806456130
H        4.0395580143   -1.1674752711    1.0243584762
H        5.2842841294   -0.6545132006   -0.1339698737
H        3.9045668884   -1.5426209409   -2.0041254294
H       -0.2796343825   -3.1580970645    0.6726873378
H        0.5561143987   -4.0171217395   -0.5183902223
H        2.0870822807   -2.7556959143   -1.7390974042
24   
torsion grid (-30,)
C        3.1592889327    0.2038075809   -0.9403252589
C        2.8274404491    0.8807934685   -2.0510798285
C        1.3818369389   -2.0175872572   -0.3058718374
C        2.3111906838    2.2973135930   -1.9691151634
C        2.8804090204    0.3114094348   -3.4486252553
C        4.6011977220   -1.3995573024    0.3337568335
C        3.6847846809   -1.2152951546   -0.8838818765
N        0.3756053306   -2.8857949936   -0.7553606328
N        2.6228399524   -2.2613704502   -0.8676388029
O        1.1573861888   -1.1319805923    0.5134582548
H        3.0341000737    0.6917543770    0.0222463852
H        2.9406868058    2.9811616196   -2.5537098346
H        1.2979945353    2.3668440087   -2.3862806179
H        2.2779027277    2.6565256396   -0.9373623044
H        1.8680515498    0.2384865484   -3.8667596182
H        3.3280063637   -0.6840269370   -3.4953916461
H        3.4491534260    0.9700478597   -4.1170380273
H        5.0166450305   -2.4116428282    0.3572331151
H        4.0341404579   -1.2377928797    1.2550419749
H        5.4262527892   -0.6799305599    0.3031186136
H        4.2682876521   -1.4245385412   -1.7842383595
H       -0.4302224291   -2.8574634038   -0.1406503840
H        0.6649366741   -3.8326214352   -0.9768273375
H        2.5782497131   -2.7966229931   -1.7271001628
24   
torsion grid (-15,)
C        3.0967719718    0.1902562156   -0.9408202966
C        2.8385276877    0.9094517598   -2.0444185768
C        1.2614397140   -2.0166146499   -0.3677983270
C        2.3471570422    2.3330987410   -1.9340749872
C        2.9470284934    0.3944065863   -3.4593869345
C        4.6452065696   -1.3828701707    0.2347009474
C        3.6168341919   -1.2271575224   -0.8965818820
N        0.3685178539   -3.0516829275   -0.7001044940
N        2.5628323045   -2.2685430898   -0.7508320293
O        0.8826298129   -1.0011352129    0.2076224874
H        2.9314467596    0.6528458316    0.0281836923
H        3.0154136914    3.0239913764   -2.4649525554
H        1.3553230407    2.4372426885   -2.3929786809
H        2.2733652597    2.6562697155   -0.8926219784
H        1.9576636428    0.3910723837   -3.9347630174
H        3.3453868848   -0.6201900647   -3.5262601147
H        3.5841615970    1.0507769570   -4.0656992613
H        5.0543405020   -2.3983631553    0.2549913970
H        4.1712892299   -1.1866834742    1.2014863494
H        5.4704630034   -0.6752175224    0.1019406736
H        4.1157181488   -1.4529775246   -1.8426957869
H       -0.4936481645   -2.9605445197   -0.1740859786
H        0.7419857121   -3.9946130964   -0.6658920658
H        2.6663103197   -3.0409005232   -1.3973603508
24   
torsion grid (0,)
C        2.9687588335    0.1554807676   -0.9870254026
C        2.8615121403    0.9577292407   -2.0573652456
C        1.1240121965   -2.0862531327   -0.4359717258
C        2.3600473764    2.3734914633   -1.8976611315
C        3.1579575644    0.5636574972   -3.4842899638
C        4.6321975678   -1.3879425699    0.0618745605
C        3.4940587525   -1.2561712080   -0.9651604904
N        0.3839260790   -3.2855131617   -0.4422144771
N        2.4653064358   -2.2825994504   -0.6773663953
O        0.5803801912   -1.0026712772   -0.2465882810
H        2.6838199847    0.5531389325   -0.0163458877
H        3.0834724119    3.0976545669   -2.2951174734
H        1.4273741641    2.5169810744   -2.4585852273
H        2.1653520548    2.6193317253   -0.8506907269
H        2.2574481624    0.6832965335   -4.1000993496
H        3.4968727969   -0.4680574900   -3.5955461388
H        3.9233205752    1.2203530727   -3.9176684455
H        5.0291410550   -2.4095748400    0.0834446648
H        4.2679406130   -1.1429645240    1.0646069934
H        5.4501877096   -0.7051913230   -0.1891453279
H        3.9010204404   -1.4981623112   -1.9515350004
H       -0.5298120162   -3.1371397006   -0.0283827047
H        0.8497241767   -4.1018873208   -0.0597352505
H        2.7221460034   -3.2150677626   -0.9758333435
24   
torsion grid (15,)
C        2.8194929606    0.0844401659   -1.0698149470
C        2.8713873312    0.9868409214   -2.0607326658
C        1.0284957801   -2.2029055283   -0.5165712332
C        2.3237818153    2.3787056037   -1.8498128963
C        3.4123061380    0.7390351075   -3.4484634359
C        4.6098057436   -1.4194897534   -0.1830906401
C        3.3691313861   -1.3168658009   -1.0879109081
N        0.4161746717   -3.3873768648   -0.0592659345
N        2.3918140067   -2.3313061574   -0.6518246627
O        0.3691753372   -1.2054766755   -0.7919776372
H        2.3872974890    0.3898422787   -0.1191532882
H        3.0896461169    3.1407714056   -2.0460007568
H        1.4962219367    2.5753747132   -2.5437925465
H        1.9510714355    2.5189633285   -0.8318895212
H        2.6331088038    0.9332017693   -4.1964703849
H        3.7762488117   -0.2779924573   -3.6049271922
H        4.2375385522    1.4283000482   -3.6696405777
H        5.0121708591   -2.4404772493   -0.1715496488
H        4.3594965911   -1.1367465626    0.8444968184
H        5.3934176762   -0.7492756155   -0.5478917498
H        3.6762526273   -1.5704288577   -2.1083231028
H       -0.5479170071   -3.2081136023    0.1985742401
H        0.9181206697   -3.8978749203    0.6597338307
H        2.7619255369   -3.2692264949   -0.5661029304
24   
torsion grid (30,)
C        3.2175566417    0.0266245688   -0.9942895846
C        3.4369924994    0.8123296641   -2.0591959529
C        2.1532022518   -2.5381031981   -1.9790679209
C        2.6405777000    2.0796271011   -2.2533107302
C        4.3979092767    0.5003176845   -3.1763609413
C        4.2740234409   -1.3282576377    0.8337261635
C        3.9034963094   -1.2720644958   -0.6517853991
N        1.1616027553   -3.5113972005   -1.7676387938
N        3.0832244417   -2.4684258931   -0.9619415558
O        2.2174739900   -1.8961647413   -3.0234130909
H        2.4464801791    0.3300580409   -0.2825627225
H        3.3016167684    2.9504271285   -2.3507371676
H        2.0549942476    2.0217004181   -3.1798312929
H        1.9516379748    2.2625963938   -1.4238876966
H        3.8292159929    0.2991438218   -4.0916409762
H        5.0164511008   -0.3768649016   -2.9855895118
H        5.0546146234    1.3563885234   -3.3758109524
H        4.7756122984   -2.2708903652    1.0823595058
H        3.3821904457   -1.2302861651    1.4643328951
H        4.9529293734   -0.5075935403    1.0790474319
H        4.8295633881   -1.3504900285   -1.2289402009
H        0.4470122771   -3.4605205136   -2.4848566925
H        0.7754778530   -3.5693088869   -0.8317418085
H        2.9218305504   -3.0916959879   -0.1803307034
24   
torsion grid (45,)
C        3.2000502792    0.0051980395   -0.9738637661
C        3.3965018468    0.7875463149   -2.0469439452
C        2.2488094416   -2.6134054168   -1.9806338190
C        2.5947207771    2.0547981241   -2.2270531310
C        4.3591261329    0.4946674501   -3.1687139305
C        4.3744429238   -1.3154426107    0.8165702987
C        3.8897109165   -1.2940658617   -0.6351859954
N        1.1399055838   -3.4562307443   -1.8282467309
N        3.0200220695   -2.4758198560   -0.8422146876
O        2.5507468304   -2.1265296068   -3.0666793223
H        2.4446054655    0.3141681723   -0.2469812668
H        3.2541775611    2.9273149461   -2.3203745724
H        2.0045902964    2.0062480397   -3.1512390114
H        1.9104877303    2.2306461100   -1.3920616425
H        3.8025741430    0.3774627164   -4.1055428620
H        4.9313395234   -0.4205030342   -3.0223422449
H        5.0563693415    1.3315085524   -3.3047030924
H        4.8743473291   -2.2617148264    1.0501778490
H        3.5375173039   -1.1816965278    1.5138194970
H        5.0807020050   -0.4988661385    0.9860376597
H        4.7578869765   -1.4242269631   -1.2849321589
H        0.5400862508   -3.4276701529   -2.6444752681
H        0.6294236977   -3.3993611299   -0.9544246400
H        2.6275419543   -2.8668758068    0.0065390842
24   
torsion grid (60,)
C        3.1835728775    0.0227483754   -0.9507802971
C        3.3678544891    0.7966028933   -2.0330213665
C        2.3120882265   -2.7028161804   -1.9583806423
C        2.5960107971    2.0854580387   -2.1947084722
C        4.3099078375    0.4869596607   -3.1691136958
C        4.4302554689   -1.2986089518    0.7919294461
C        3.8510349108   -1.2927052172   -0.6250295325
N        1.1706441255   -3.5084271592   -1.8724084206
N        2.9192595462   -2.4323900217   -0.7483519920
O        2.7799831779   -2.3506433043   -3.0385171758
H        2.4584206931    0.3535936956   -0.2028123045
H        3.2772734569    2.9371725065   -2.3191042904
H        1.9714771647    2.0494286081   -3.0966395277
H        1.9486125207    2.2881052154   -1.3366760883
H        3.7672822177    0.5248341890   -4.1207956434
H        4.7606636767   -0.5015897985   -3.0984707037
H        5.1048221799    1.2426487690   -3.2226501189
H        4.9098606695   -2.2575048376    1.0135720257
H        3.6469399210   -1.1210102048    1.5401854373
H        5.1714898930   -0.5020595393    0.8964722798
H        4.6597508344   -1.4824992872   -1.3317542725
H        0.6782039577   -3.5486156190   -2.7570316439
H        0.5574812933   -3.3660979872   -1.0779747643
H        2.3927964449   -2.6554340542    0.0885940649
24   
torsion grid (75,)
C        3.1763848380    0.0713618945   -0.9226618707
C        3.3489666610    0.8319817821   -2.0168421170
C        2.3799697293   -2.8106660096   -1.9339146243
C        2.6434741154    2.1620803906   -2.1457100070
C        4.2264817422    0.4707507829   -3.1905399648
C        4.4401876640   -1.2925538285    0.7716188925
C        3.8020036303   -1.2714695078   -0.6208235813
N        1.2303196269   -3.6062383587   -1.8917514393
N        2.8170394650   -2.3636317910   -0.7058232844
O        2.9904833684   -2.6072074919   -2.9822736614
H        2.5067388764    0.4414088141   -0.1420417023
H        3.3670659648    2.9741645168   -2.2945147445
H        1.9833120211    2.1673002817   -3.0226065720
H        2.0432389876    2.3975390564   -1.2621084920
H        3.6709323072    0.6070572884   -4.1259992760
H        4.5690059683   -0.5628505077   -3.1688335367
H        5.0953500259    1.1406667652   -3.2385860278
H        4.8997723960   -2.2651307762    0.9728989984
H        3.6944112507   -1.0943944574    1.5523183142
H        5.2065661211   -0.5160393535    0.8452039912
H        4.5655942862   -1.5048113929   -1.3619192823
H        0.8535666218   -3.7645779892   -2.8187529441
H        0.5236349754   -3.3719933676   -1.2041048861
H        2.1911857372   -2.4655969513    0.0843001190
24   
torsion grid (90,)
C        3.1811342332    0.1360475754   -0.8946625048
C        3.3408323782    0.8845951722   -1.9993088222
C        2.4446257242   -2.9152812613   -1.9015148262
C        2.7146013133    2.2563041366   -2.0987922942
C        4.1289505155    0.4644986430   -3.2169186746
C        4.4171658371   -1.3036622366    0.7549879386
C        3.7504336612   -1.2390438199   -0.6238587456
N        1.3030515007   -3.7254739039   -1.8887846042
N        2.7163008603   -2.2800166429   -0.7136731289
O        3.1778326541   -2.8479698266   -2.8883747972
H        2.5749111649    0.5446816542   -0.0823931329
H        3.4791097458    3.0201667178   -2.2918922181
H        2.0089472348    2.3018267863   -2.9383401402
H        2.1801192563    2.5321235626   -1.1852193293
H        3.5346153758    0.6377049526   -4.1223638703
H        4.4071672041   -0.5891592963   -3.2096280843
H        5.0353554633    1.0764497812   -3.3160810863
H        4.8370767892   -2.2979984920    0.9343028619
H        3.6975175137   -1.0837865578    1.5539784078
H        5.2188786897   -0.5623533501    0.8211700424
H        4.4844544972   -1.5001003161   -1.3842060018
H        1.0452413496   -4.0133620863   -2.8254291406
H        0.5144697684   -3.4052627795   -1.3381631786
H        2.0328936496   -2.3237786231    0.0316976309
24   
torsion grid (105,)
C        3.2428060225    0.2223119658   -0.8380577271
C        3.3257473563    0.9251664781   -1.9805741518
C        2.5636784161   -2.9777393149   -1.8836071602
C        2.8021500951    2.3404048583   -2.0553964946
C        3.9254629158    0.4047362265   -3.2653417274
C        4.3541623154   -1.3408736159    0.7898977522
C        3.7317075456   -1.1921783048   -0.6033426582
N        1.4145770490   -3.7785411903   -1.9299281626
N        2.6533013806   -2.1745877171   -0.7761025206
O        3.4386347165   -3.0500500241   -2.7483068187
H        2.7773433200    0.7013613649    0.0263519807
H        3.5963332041    3.0327673691   -2.3635793108
H        2.0071354665    2.4228061610   -2.8078247192
H        2.4039190356    2.6830349607   -1.0960845639
H        3.2295137131    0.5741260337   -4.0965765520
H        4.1537443695   -0.6611470921   -3.2407556286
H        4.8411092735    0.9591369158   -3.5106693599
H        4.7307475337   -2.3573962593    0.9363151168
H        3.6190290814   -1.1289438112    1.5766414094
H        5.1821385381   -0.6356979740    0.9122699380
H        4.4764355675   -1.4622705014   -1.3504838343
H        1.2977938961   -4.1947523185   -2.8465650667
H        0.5592727610   -3.3697312030   -1.5698925482
H        1.8989428072   -2.1747932179   -0.1018548908
24   
torsion grid (120,)
C        3.3773391538    0.3121276674   -0.7739155085
C        3.3132750208    0.9528039736   -1.9533777896
C        2.7253391279   -3.0020219982   -1.8699933321
C        2.9219384816    2.4093266848   -2.0280447590
C        3.6025413139    0.3010221943   -3.2835616678
C        4.2480267247   -1.3974705243    0.8618509656
C        3.7550867683   -1.1435893607   -0.5677123857
N        1.5585101633   -3.7609478693   -2.0373236995
N        2.6415463023   -2.0425482955   -0.8954793811
O        3.7437031817   -3.2240050856   -2.5275733541
H        3.1369040795    0.8725187354    0.1312279758
H        3.7224369764    3.0035761462   -2.4872801377
H        2.0328501278    2.5438607902   -2.6578349687
H        2.7090150498    2.8281745947   -1.0404683333
H        2.7056283042    0.3275936947   -3.9165261204
H        3.9212228183   -0.7387919200   -3.2030399370
H        4.3770950427    0.8618157401   -3.8223133739
H        4.5509807757   -2.4412010875    0.9829089589
H        3.4617876529   -1.1787148149    1.5951801269
H        5.1044542637   -0.7542540487    1.0894046737
H        4.5476111796   -1.4264762678   -1.2614165725
H        1.5946388823   -4.2971430473   -2.8966791620
H        0.6784583510   -3.2717640121   -1.9153252306
H        1.7952966379   -1.9667420999   -0.3461746860
24   
torsion grid (135,)
C        3.4201985223    0.3514664278   -0.7756684346
C        3.3063083749    1.0011983364   -1.9461054343
C        2.7828864765   -3.0760191501   -1.7979520297
C        2.9618063516    2.4700956524   -1.9956480841
C        3.4953516325    0.3406063237   -3.2898382668
C        4.2011109790   -1.4424474958    0.8207360855
C        3.7531351990   -1.1198797291   -0.6102046543
N        1.6128414081   -3.8248858045   -1.9874330472
N        2.6201907606   -1.9636850334   -1.0115055253
O        3.8609417553   -3.4171320293   -2.2861182629
H        3.2622100979    0.9127812347    0.1462948742
H        3.7508478538    3.0381192895   -2.5050637957
H        2.0388771096    2.6365852635   -2.5664400722
H        2.8270709151    2.8928418319   -0.9960809520
H        2.5600595741    0.3766876810   -3.8638044932
H        3.8047836841   -0.7028585171   -3.2209978985
H        4.2433507912    0.8846522361   -3.8803992947
H        4.4659647464   -2.4997637472    0.9073918594
H        3.4038556489   -1.2240695919    1.5418834023
H        5.0744322757   -0.8401479038    1.0930355124
H        4.5591770567   -1.4005860193   -1.2902379527
H        1.7248289186   -4.4879664378   -2.7459456467
H        0.7476121687   -3.2991292589   -2.0497224397
H        1.7478440797   -1.8393137694   -0.5136431478
24   
torsion grid (150,)
C        3.4230734917    0.3631659181   -0.8005258169
C        3.3045864732    1.0473167889   -1.9507150532
C        2.7940059969   -3.1675142049   -1.6796150705
C        2.9725949680    2.5198492131   -1.9559461932
C        3.4799901204    0.4237180751   -3.3135115248
C        4.1828424579   -1.4825378764    0.7473776190
C        3.7486094476   -1.1131101683   -0.6766367888
N        1.6098358188   -3.8871877492   -1.8918669386
N        2.6065082071   -1.9263247135   -1.1192991588
O        3.8996318076   -3.6281932195   -1.9627262233
H        3.2777934404    0.8995400007    0.1379885698
H        3.7635296435    3.0955687465   -2.4536510067
H        2.0476671405    2.7107585316   -2.5156777309
H        2.8477912832    2.9144106550   -0.9437108485
H        2.5433095929    0.4855915186   -3.8826762815
H        3.7748588226   -0.6252744384   -3.2707121809
H        4.2331958290    0.9738014250   -3.8916189842
H        4.4317483842   -2.5454501864    0.8021050756
H        3.3834380023   -1.2723240837    1.4682306268
H        5.0645455788   -0.9026532176    1.0411786051
H        4.5623195536   -1.3768021952   -1.3554011870
H        1.7682141249   -4.6762483457   -2.5083170953
H        0.7954715482   -3.3414896715   -2.1525898040
H        1.7101246468   -1.7214610129   -0.6951503075
24   
torsion grid (165,)
C        3.4084272072    0.3549373078   -0.8358470984
C        3.3027698361    1.0848169155   -1.9589294219
C        2.7741227350   -3.2494691854   -1.5504092159
C        2.9530154816    2.5524788553   -1.9093236601
C        3.5173746235    0.5227120323   -3.3425190088
C        4.1905575207   -1.5178194781    0.6568549587
C        3.7565201147   -1.1190594219   -0.7599447365
N        1.5721699514   -3.9375943754   -1.7668646051
N        2.6125893747   -1.9197159914   -1.2310932737
O        3.8702814733   -3.8017042498   -1.6318000657
H        3.2353023911    0.8496397862    0.1204672909
H        3.7431344258    3.1564104969   -2.3737785659
H        2.0327714839    2.7551295183   -2.4724397408
H        2.8118260661    2.9046568004   -0.8837564964
H        2.6116138037    0.6496598515   -3.9492952057
H        3.7690975509   -0.5382749216   -3.3371033116
H        4.3171206955    1.0699675464   -3.8576899646
H        4.4466213070   -2.5789835347    0.6891534883
H        3.3875088605   -1.3249572949    1.3782287063
H        5.0681665946   -0.9373624664    0.9619244000
H        4.5783525380   -1.3497436054   -1.4422200860
H        1.7384306647   -4.8284461881   -2.2214624604
H        0.8266051423   -3.4062595337   -2.2036958419
H        1.7013065382   -1.6238690744   -0.9019237835
24   
torsion grid (180,)
C        3.3872692146    0.3269817201   -0.8751995529
C        3.3069471828    1.1064625654   -1.9667525264
C        2.7316078587   -3.3141401547   -1.4342363994
C        2.9033253938    2.5575464059   -1.8638219811
C        3.6044659395    0.6209915239   -3.3640276737
C        4.2185961849   -1.5451978946    0.5684620733
C        3.7847090502   -1.1362526125   -0.8467112462
N        1.4971388464   -3.9484109301   -1.6332989672
N        2.6500813916   -1.9398478619   -1.3492463677
O        3.7833671317   -3.9445117109   -1.3442779083
H        3.1495772210    0.7669326669    0.0937215319
H        3.6943461902    3.2093765351   -2.2563701866
H        2.0062763730    2.7582938634   -2.4636767693
H        2.6985877755    2.8527045432   -0.8310468972
H        2.7271548670    0.7586901384   -4.0088786456
H        3.8808517729   -0.4334369194   -3.3980254024
H        4.4150467018    1.2111739878   -3.8102457850
H        4.5165247650   -2.5941807897    0.5919604875
H        3.3997097503   -1.3923155564    1.2814010124
H        5.0670775955   -0.9302850282    0.8880991504
H        4.6211306653   -1.3192753781   -1.5269693915
H        1.6244797503   -4.9070003306   -1.9380879495
H        0.8205690388   -3.4437893865   -2.1960415746
H        1.7368457195   -1.5533596073   -1.1401967294
