23   
torsion grid (-165,)
C        3.5764012569    0.6260151635   -4.4610792610
C        2.6145668953   -0.5679154386   -4.4230568004
C        2.6431027124   -1.3800505432   -3.1134397192
H        3.6966437086   -1.6193072584   -2.9021307073
C        2.0958900644   -0.5728395700   -1.9245670154
C        1.8921794609   -2.7118098874   -3.2908652890
C        1.9471968308   -3.6565629097   -2.0836164822
C        1.2824780027   -5.0095522775   -2.3636578721
H        3.5493434082    1.1183196731   -5.4392975771
H        4.6087079399    0.3040979621   -4.2794230458
H        3.3280518994    1.3820766334   -3.7095639797
H        1.5883117462   -0.2199493377   -4.6067895435
H        2.8594750698   -1.2408878174   -5.2549467803
H        2.3541529569   -1.0358104736   -0.9673818931
H        2.5076442618    0.4408003844   -1.9033429099
H        1.0034716993   -0.4871005692   -1.9803074644
H        2.3068783582   -3.2348435358   -4.1635815682
H        0.8410217429   -2.4993751116   -3.5356667507
H        1.4606787016   -3.1892065919   -1.2197861102
H        2.9956920865   -3.8155704113   -1.7971390373
H        1.3278798689   -5.6676862124   -1.4890268833
H        1.7728016606   -5.5266364144   -3.1967520236
H        0.2267352302   -4.8820227097   -2.6304012025
23   
torsion grid (-150,)
C        3.6155390112    0.6103303829   -4.4393205854
C        2.6113605985   -0.5482597869   -4.4167288647
C        2.6212399708   -1.3752441176   -3.1161301423
H        3.6744406059   -1.6036416595   -2.8930949900
C        2.0458902060   -0.5835713638   -1.9238482244
C        1.8935437526   -2.7165178280   -3.3087996247
C        1.9551689512   -3.6567006157   -2.0985301395
C        1.2742949744   -5.0049696386   -2.3613667517
H        3.5763630529    1.1450728143   -5.3945705704
H        4.6396567716    0.2424362839   -4.3053493401
H        3.4215802831    1.3415751528   -3.6478169312
H        1.5969422784   -0.1622594924   -4.5902460745
H        2.8295239085   -1.2163458211   -5.2598837574
H        2.4954433080   -0.8892978311   -0.9741170236
H        2.2437002301    0.4884239858   -2.0237246064
H        0.9592702788   -0.7096984468   -1.8509382617
H        2.3239993432   -3.2330646137   -4.1776586511
H        0.8412958536   -2.5190475767   -3.5615919233
H        1.4866854403   -3.1784570979   -1.2304018248
H        3.0062193724   -3.8235477544   -1.8263497838
H        1.3307319413   -5.6606948477   -1.4855664213
H        1.7448109892   -5.5288303972   -3.2016452683
H        0.2148421135   -4.8697431112   -2.6088716684
23   
torsion grid (-135,)
C        3.7178522936    0.7003054578   -4.3598232113
C        2.7046144402   -0.4504482313   -4.3642074720
C        2.6601446818   -1.2562018713   -3.0515296899
H        3.7019904135   -1.5048051929   -2.8008374814
C        2.0694225411   -0.4297238926   -1.8828926900
C        1.9125442135   -2.5870024277   -3.2401571705
C        1.9807220439   -3.5267230286   -2.0298379010
C        1.2463649160   -4.8517841908   -2.2649788577
H        3.7140205801    1.2322663676   -5.3174109776
H        4.7339911749    0.3246039281   -4.1911480727
H        3.5041980219    1.4348014711   -3.5761518308
H        1.7005151358   -0.0598289394   -4.5816595394
H        2.9510623307   -1.1314245657   -5.1890131730
H        2.6555451709   -0.5327787866   -0.9646265876
H        2.0546285342    0.6396525248   -2.1170033167
H        1.0369079224   -0.7232805395   -1.6645809612
H        2.3259562683   -3.1096030334   -4.1135711172
H        0.8598359722   -2.3762547150   -3.4797533327
H        1.5591088306   -3.0306085780   -1.1474885768
H        3.0340657165   -3.7282151508   -1.7925835656
H        1.3139179741   -5.5088322216   -1.3909631751
H        1.6677940304   -5.3911209553   -3.1213827161
H        0.1834566862   -4.6819197632   -2.4731110581
23   
torsion grid (-120,)
C        3.7240475226    0.7215436415   -4.3379511169
C        2.7496115544   -0.4619496302   -4.3719124216
C        2.6694865626   -1.2447708495   -3.0477414565
H        3.7002216670   -1.5102603720   -2.7720107937
C        2.0633812335   -0.3851445974   -1.9065702106
C        1.9002388926   -2.5644739529   -3.2375096654
C        1.9972463808   -3.5287684300   -2.0485937983
C        1.2086917521   -4.8249374307   -2.2687466684
H        3.7509893862    1.2393329909   -5.3029189654
H        4.7421048865    0.3819965572   -4.1132035125
H        3.4473944486    1.4586862221   -3.5767187816
H        1.7444537679   -0.1075535448   -4.6399890862
H        3.0558033014   -1.1476871416   -5.1723079151
H        2.7526901912   -0.2621474511   -1.0657396166
H        1.8025667994    0.6196234990   -2.2544480879
H        1.1448847168   -0.8309758708   -1.5113611950
H        2.2804449668   -3.0759977652   -4.1322271012
H        0.8432380157   -2.3385000268   -3.4410344301
H        1.6382513633   -3.0374007747   -1.1361513324
H        3.0540336464   -3.7682740905   -1.8695516586
H        1.3026308730   -5.5022633110   -1.4128407692
H        1.5651844722   -5.3587938369   -3.1574773557
H        0.1420930374   -4.6176259839   -2.4146202239
23   
torsion grid (-105,)
C        3.8504100202    0.7636430003   -4.6325810472
C        2.8842571144   -0.4271645493   -4.6516389636
C        2.7157117809   -1.1176641809   -3.2855339479
H        3.7152054614   -1.4250648734   -2.9465458995
C        2.1114417846   -0.1518999819   -2.2343578977
C        1.8702854531   -2.3970994615   -3.4357141852
C        1.9202244555   -3.3391054862   -2.2261781326
C        1.0500240353   -4.5879351770   -2.4096125103
H        3.9482100775    1.2102591762   -5.6280694399
H        4.8499445339    0.4502982628   -4.3083332803
H        3.5139588698    1.5506431396   -3.9495057707
H        1.8977148727   -0.0981124662   -5.0066046425
H        3.2436153514   -1.1638388992   -5.3815321246
H        2.8578812443    0.2026074688   -1.5168914403
H        1.6551056156    0.7240293035   -2.7073904274
H        1.3277431638   -0.6406937901   -1.6467562632
H        2.2131540166   -2.9516007487   -4.3198285028
H        0.8266678904   -2.1159703105   -3.6391809182
H        1.6027506942   -2.8080825118   -1.3205094197
H        2.9619272945   -3.6402992852   -2.0523265209
H        1.1115370282   -5.2512325576   -1.5398931124
H        1.3623696505   -5.1619243653   -3.2898886110
H       -0.0031925114   -4.3175582817   -2.5492285280
23   
torsion grid (-90,)
C        3.7929777093    0.7665249731   -4.4770269998
C        2.8843166135   -0.4681814812   -4.5190518672
C        2.7209493338   -1.1772304487   -3.1619560437
H        3.7188864313   -1.4901360633   -2.8225728036
C        2.1168409742   -0.2274407459   -2.1045544033
C        1.8677269886   -2.4498064977   -3.3335628571
C        1.9481404041   -3.4403828778   -2.1650521488
C        1.0715518778   -4.6802051773   -2.3773423724
H        3.9042563777    1.2092662836   -5.4728313228
H        4.7944777039    0.5037486711   -4.1157442736
H        3.3952358807    1.5415859985   -3.8138987745
H        1.8898760668   -0.1814109674   -4.8883556313
H        3.2880848678   -1.1833699962   -5.2471535401
H        2.8876594306    0.3221872292   -1.5552463803
H        1.4337701938    0.4961882312   -2.5635918050
H        1.5454527450   -0.7812071571   -1.3526502057
H        2.1823329126   -2.9704065309   -4.2482959221
H        0.8195543508   -2.1591051246   -3.4960663274
H        1.6544500155   -2.9481976296   -1.2300483227
H        2.9934151972   -3.7492607842   -2.0309064967
H        1.1556011478   -5.3794704564   -1.5382280329
H        1.3593366437   -5.2166915501   -3.2890850582
H        0.0153436137   -4.4039375928   -2.4770163895
23   
torsion grid (-75,)
C        3.8650434832    0.7720139466   -4.5281242595
C        2.9387761453   -0.4497969295   -4.5626090134
C        2.7583872375   -1.1556776497   -3.2055149996
H        3.7493381149   -1.4917640834   -2.8657300211
C        2.1846890443   -0.1968320869   -2.1473931019
C        1.8740803835   -2.4062216505   -3.3792236881
C        1.8990431017   -3.3906027632   -2.2027894628
C        1.0275994338   -4.6278311346   -2.4495172251
H        4.0096392993    1.1835050243   -5.5330037285
H        4.8526693202    0.5057205828   -4.1326275492
H        3.4612383953    1.5725222468   -3.9002798232
H        1.9505281472   -0.1498355125   -4.9382823033
H        3.3333269739   -1.1752794119   -5.2856263977
H        2.9376665378    0.5116170550   -1.7883707032
H        1.3400837926    0.3732620189   -2.5532854066
H        1.8247395384   -0.7397036464   -1.2679222916
H        2.1942867275   -2.9427356660   -4.2828796447
H        0.8379664235   -2.0890464803   -3.5676347254
H        1.5636915947   -2.8938756567   -1.2847892119
H        2.9356866538   -3.7035396454   -2.0197824744
H        1.0656021992   -5.3206969535   -1.6017990680
H        1.3580059492   -5.1729355187   -3.3414711772
H       -0.0207980284   -4.3471506307   -2.6042327658
23   
torsion grid (-60,)
C        3.9374757630    0.6734991400   -4.7220460930
C        2.9496030723   -0.4997721553   -4.7207328216
C        2.7912088715   -1.2136475670   -3.3643630023
H        3.7902803305   -1.5502346583   -3.0477307914
C        2.2453436300   -0.2672086306   -2.2844077868
C        1.9083411643   -2.4651065954   -3.5294720739
C        1.8396295320   -3.3883964841   -2.3060885413
C        1.0414162187   -4.6687329413   -2.5797093281
H        4.0707960433    1.0703657382   -5.7343332638
H        4.9223608344    0.3593179761   -4.3560872246
H        3.5963633942    1.4995057350   -4.0903072554
H        1.9634297225   -0.1483951333   -5.0551769490
H        3.2773772363   -1.2376142800   -5.4643647844
H        2.9082059353    0.5881556952   -2.1231114882
H        1.2598669491    0.1205356707   -2.5728532717
H        2.1354499364   -0.7735548078   -1.3209200410
H        2.2853693517   -3.0475898765   -4.3814031857
H        0.8904850345   -2.1519860743   -3.8045075681
H        1.3878209058   -2.8601743425   -1.4587153465
H        2.8596628661   -3.6519933035   -1.9955190727
H        1.0007752452   -5.3129081102   -1.6945330847
H        1.4903534731   -5.2485175602   -3.3946524660
H        0.0102388728   -4.4356613681   -2.8700580153
23   
torsion grid (-45,)
C        3.9535516854    0.7090242744   -4.6000281296
C        2.8914734625   -0.3973520867   -4.5947677942
C        2.7600579628   -1.1612453814   -3.2626668584
H        3.7722147707   -1.4798311838   -2.9693533782
C        2.2018278717   -0.2683107400   -2.1421938944
C        1.9120838920   -2.4314845321   -3.4532937063
C        1.8024627977   -3.3336454854   -2.2175035552
C        1.0475768011   -4.6369063940   -2.5047974558
H        4.0349822966    1.1675691650   -5.5915480248
H        4.9394978755    0.3074989985   -4.3374694599
H        3.7219511402    1.5090510291   -3.8898020080
H        1.9141397915    0.0290420162   -4.8613287894
H        3.1334350009   -1.1180459684   -5.3865576695
H        2.6833650887    0.7138113156   -2.1267002703
H        1.1270974170   -0.0988351485   -2.2892985732
H        2.3345182069   -0.7192890399   -1.1545192526
H        2.3401590190   -3.0182461691   -4.2776867528
H        0.9024221705   -2.1414303496   -3.7795258949
H        1.2973152156   -2.7976077675   -1.4058160975
H        2.8111102514   -3.5674689355   -1.8505865998
H        0.9757108301   -5.2647023455   -1.6098767891
H        1.5501012580   -5.2219336729   -3.2839273849
H        0.0277380139   -4.4330905205   -2.8517717813
23   
torsion grid (-30,)
C        3.9921736466    0.6903041105   -4.5732510123
C        2.8921816983   -0.3779205431   -4.5876904574
C        2.7431650913   -1.1569477492   -3.2663229166
H        3.7554458355   -1.4658159992   -2.9641006814
C        2.1588109006   -0.2770052482   -2.1424188769
C        1.9166658330   -2.4378979699   -3.4701912187
C        1.8125184632   -3.3363911297   -2.2315027603
C        1.0406932255   -4.6326973397   -2.5042556926
H        4.0626663605    1.1943270098   -5.5432927582
H        4.9694503962    0.2418160869   -4.3591252011
H        3.8104354408    1.4611030767   -3.8171831979
H        1.9288426026    0.0860622287   -4.8424990427
H        3.1075387185   -1.0908262564   -5.3940237038
H        2.4310210763    0.7755376258   -2.2646775506
H        1.0619834412   -0.3154844791   -2.1616217181
H        2.4811625102   -0.6004971556   -1.1485914728
H        2.3599864578   -3.0196136061   -4.2900150555
H        0.9055828959   -2.1614320965   -3.8039218159
H        1.3251633795   -2.7911158054   -1.4148004019
H        2.8236661689   -3.5791801036   -1.8775839289
H        0.9787473125   -5.2592317898   -1.6077088338
H        1.5241712039   -5.2229809581   -3.2914566852
H        0.0168853239   -4.4198130696   -2.8336116107
23   
torsion grid (-15,)
C        4.1030165084    0.7765870177   -4.4710628766
C        2.9950949064   -0.2822956058   -4.5176839437
C        2.7896199657   -1.0378991823   -3.1906836639
H        3.7861046183   -1.3671018452   -2.8604686662
C        2.1959928890   -0.1243926228   -2.0905804230
C        1.9422059325   -2.3047260042   -3.3959774201
C        1.8422559272   -3.2056646753   -2.1586668314
C        1.0116851174   -4.4694732703   -2.4102360377
H        4.2114358749    1.2764129909   -5.4397720064
H        5.0682080250    0.3203239575   -4.2213836039
H        3.9018035728    1.5508283593   -3.7232136579
H        2.0466328451    0.1859864123   -4.8165667669
H        3.2365173427   -1.0083890239   -5.3046036824
H        2.2717152655    0.9347045567   -2.3549180586
H        1.1263809288   -0.3262436192   -1.9567720230
H        2.6767030209   -0.2677398368   -1.1187137255
H        2.3680697687   -2.8901118695   -4.2223272677
H        0.9315890221   -2.0122566874   -3.7170778190
H        1.4053765159   -2.6457502843   -1.3231767924
H        2.8544644016   -3.4893219610   -1.8402343934
H        0.9598102777   -5.1003773058   -1.5161196336
H        1.4423284042   -5.0714427893   -3.2189935708
H       -0.0149316340   -4.2154742131   -2.6991634323
23   
torsion grid (0,)
C        4.1077152134    0.7983756738   -4.4491603948
C        3.0374547301   -0.2973166496   -4.5219262451
C        2.7962638226   -1.0260998569   -3.1864817823
H        3.7781353684   -1.3686698513   -2.8293265440
C        2.1888673809   -0.0805048696   -2.1162405849
C        1.9305171680   -2.2814180458   -3.3958003796
C        1.8576923408   -3.2090805423   -2.1764030436
C        0.9772516754   -4.4406063034   -2.4182825963
H        4.2475068270    1.2798363478   -5.4231469427
H        5.0736715170    0.3800444611   -4.1422930228
H        3.8447028115    1.5812381488   -3.7299036716
H        2.0886896757    0.1332326782   -4.8716539797
H        3.3370898132   -1.0329459338   -5.2793496967
H        2.0432583226    0.9315951547   -2.5071545378
H        1.2061138488   -0.4317030900   -1.7846044460
H        2.8183603134    0.0025681879   -1.2252572001
H        2.3278817827   -2.8537456156   -4.2450843684
H        0.9145415218   -1.9736762975   -3.6836004614
H        1.4781777760   -2.6580288431   -1.3073978503
H        2.8740561166   -3.5309330232   -1.9125059501
H        0.9502567980   -5.0937024530   -1.5391316836
H        1.3488305026   -5.0328958320   -3.2627082519
H       -0.0540460929   -4.1488421796   -2.6489087662
23   
torsion grid (15,)
C        3.7066534546    0.7148863979   -5.1737792648
C        2.7713739838   -0.4970716939   -5.0821087626
C        2.6923303554   -1.1219401107   -3.6769503042
H        3.7158239831   -1.3873024747   -3.3762735778
C        2.1156787878   -0.1208533753   -2.6433958565
C        1.8759063458   -2.4281127415   -3.7198832746
C        2.0101757041   -3.3042543652   -2.4680026815
C        1.1675855530   -4.5827898497   -2.5446323784
H        3.7412184366    1.1119653177   -6.1941471239
H        4.7293135191    0.4413492457   -4.8878945203
H        3.3864359982    1.5283413133   -4.5142725603
H        1.7595567574   -0.2091895087   -5.3995943110
H        3.1110648801   -1.2612158452   -5.7929339528
H        1.6341228758    0.7290564351   -3.1392895485
H        1.3741443640   -0.5869022717   -1.9882012487
H        2.8957703869    0.2986558495   -1.9998500609
H        2.1904188427   -3.0192103468   -4.5907364602
H        0.8163320777   -2.1838961835   -3.8849516505
H        1.7216996939   -2.7350452234   -1.5759338066
H        3.0670437426   -3.5692523649   -2.3305644975
H        1.2892250054   -5.1980441541   -1.6463963243
H        1.4534622898   -5.1937246205   -3.4088910475
H        0.1017182878   -4.3470916279   -2.6458174010
23   
torsion grid (30,)
C        3.6566104532    0.7159277651   -5.0074360506
C        2.7785880673   -0.5396829206   -4.9387388431
C        2.7090665173   -1.1864904772   -3.5432265408
H        3.7320377390   -1.4590920407   -3.2461240384
C        2.1375909194   -0.2025275561   -2.4990471821
C        1.8826245490   -2.4864351628   -3.6078705858
C        2.0453913261   -3.4125862628   -2.3959070722
C        1.1962468550   -4.6846166539   -2.5034276656
H        3.7037811062    1.1091925136   -6.0287738210
H        4.6821532865    0.4947618584   -4.6882058647
H        3.2752227167    1.5153623110   -4.3639196496
H        1.7582260113   -0.2942465185   -5.2644169156
H        3.1597767163   -1.2800466297   -5.6537143869
H        1.4352698668    0.4977669565   -2.9666500090
H        1.6204790568   -0.7157358283   -1.6836979121
H        2.9262697326    0.4090855094   -2.0480056645
H        2.1665517956   -3.0461403210   -4.5094874224
H        0.8204968003   -2.2297799293   -3.7327447218
H        1.7807886195   -2.8805674295   -1.4741381722
H        3.1042163818   -3.6862367013   -2.2958592037
H        1.3378849911   -5.3362493585   -1.6342516191
H        1.4582789552   -5.2605688798   -3.3987062315
H        0.1291109512   -4.4420144815   -2.5682701694
23   
torsion grid (45,)
C        3.7182214050    0.7228309860   -5.0562996243
C        2.8256352196   -0.5220679239   -4.9809512821
C        2.7392604695   -1.1666299796   -3.5847764138
H        3.7564201455   -1.4601482605   -3.2852188584
C        2.1954151025   -0.1737311495   -2.5424564478
C        1.8838946173   -2.4472300572   -3.6515474696
C        1.9946783519   -3.3689281345   -2.4301605413
C        1.1497768686   -4.6406232244   -2.5714589110
H        3.7979232443    1.0865712168   -6.0865179101
H        4.7323910206    0.5015807048   -4.7024421155
H        3.3263775841    1.5439266319   -4.4477662706
H        1.8104321253   -0.2658118716   -5.3147362408
H        3.2003307674   -1.2715850852   -5.6898488017
H        1.3254170458    0.3642405249   -2.9396731030
H        1.8971692117   -0.6712401880   -1.6154134727
H        2.9433190815    0.5810294580   -2.2785598049
H        2.1749126572   -3.0206729040   -4.5423322473
H        0.8311123041   -2.1673981229   -3.8030702396
H        1.6889298726   -2.8350888036   -1.5227132325
H        3.0477807723   -3.6435162505   -2.2830737881
H        1.2487872730   -5.2876154981   -1.6929742253
H        1.4534313224   -5.2216844653   -3.4501220985
H        0.0872914854   -4.3970888893   -2.6883828527
23   
torsion grid (60,)
C        3.6613016799    0.6901490313   -5.0131143683
C        2.7410415088   -0.5327292720   -4.9122487548
C        2.7157076663   -1.2144535270   -3.5306337190
H        3.7509468331   -1.4894944182   -3.2770942434
C        2.1952646484   -0.2668969287   -2.4391444117
C        1.8923269440   -2.5145071989   -3.6015870813
C        1.9539867214   -3.4019789959   -2.3516188404
C        1.2127844032   -4.7314519079   -2.5372016974
H        3.7019877430    1.0641309313   -6.0419405591
H        4.6848876963    0.4386038812   -4.7104245931
H        3.3208125271    1.5150578439   -4.3796068171
H        1.7164618967   -0.2434686496   -5.1850364134
H        3.0562124956   -1.2735827338   -5.6583494271
H        1.1736202509    0.0618909544   -2.6693854374
H        2.1788967539   -0.7487034780   -1.4572952971
H        2.8193049769    0.6273264695   -2.3489630294
H        2.2433161993   -3.1026075749   -4.4607655255
H        0.8432674678   -2.2630620869   -3.8159305868
H        1.5284701203   -2.8731192462   -1.4911423218
H        3.0049632789   -3.6003419070   -2.1015798566
H        1.2655919662   -5.3495343950   -1.6342422876
H        1.6399245619   -5.3106783977   -3.3641671936
H        0.1535619957   -4.5635610976   -2.7648300558
23   
torsion grid (75,)
C        3.6371316170    0.6757120427   -4.9421025553
C        2.6607096682   -0.5013650995   -4.8276019165
C        2.6756557863   -1.2234246649   -3.4660199610
H        3.7253092882   -1.4639765432   -3.2373691818
C        2.1392733915   -0.3296276404   -2.3356046656
C        1.9045174682   -2.5524369510   -3.5546260245
C        1.9457134188   -3.4163760494   -2.2877022098
C        1.2633251960   -4.7759266835   -2.4796761627
H        3.6191164530    1.1014651143   -5.9512681998
H        4.6648895237    0.3544935132   -4.7351603463
H        3.3955888460    1.4834479162   -4.2440208293
H        1.6393203322   -0.1542003524   -5.0379858325
H        2.8997739333   -1.2317396789   -5.6114019029
H        1.0465503021   -0.2457613296   -2.3950143907
H        2.3776765958   -0.7429704009   -1.3506188464
H        2.5614933218    0.6785124254   -2.3735082932
H        2.3111053720   -3.1382267071   -4.3904954633
H        0.8566225601   -2.3409565300   -3.8137805218
H        1.4644135009   -2.8872274308   -1.4572331887
H        2.9916816048   -3.5700456248   -1.9893724415
H        1.2988021652   -5.3756727189   -1.5635877170
H        1.7477888671   -5.3530812661   -3.2759285913
H        0.2097285773   -4.6522319573   -2.7565160878
23   
torsion grid (90,)
C        3.6439177758    0.7374245644   -4.7686394385
C        2.6309512354   -0.4105465443   -4.6835150008
C        2.6358817807   -1.1662442687   -3.3402196959
H        3.6872491600   -1.3958884050   -3.1097583393
C        2.0756691111   -0.3037007801   -2.1906654335
C        1.8902346860   -2.5062826440   -3.4575647063
C        1.9472314195   -3.3831957534   -2.2003944314
C        1.2525471904   -4.7365105297   -2.3913462088
H        3.6092036383    1.2194380553   -5.7517158448
H        4.6651934946    0.3697570061   -4.6139037296
H        3.4551625907    1.5122405548   -4.0184086731
H        1.6193522529   -0.0264320592   -4.8765982751
H        2.8429217564   -1.1245350698   -5.4898576098
H        0.9912042481   -0.4386988827   -2.0956660530
H        2.5086523939   -0.5908385042   -1.2268540618
H        2.2790334544    0.7612842054   -2.3324778796
H        2.3097257149   -3.0728246059   -4.3002026599
H        0.8391753185   -2.3090496252   -3.7152381869
H        1.4862461052   -2.8568415549   -1.3564231135
H        2.9975892175   -3.5460151225   -1.9231889722
H        1.3052200332   -5.3464835463   -1.4828692657
H        1.7155300563   -5.3077515033   -3.2044873139
H        0.1937357461   -4.6038985830   -2.6429653027
23   
torsion grid (105,)
C        3.7842297374    0.8514918185   -4.6786442448
C        2.7499067141   -0.2784830086   -4.6133375739
C        2.6924268051   -1.0021353358   -3.2541067152
H        3.7296638743   -1.2579492613   -2.9918056025
C        2.1245724540   -0.0926335044   -2.1368717469
C        1.9150152802   -2.3248462549   -3.3599972781
C        1.9703430046   -3.1937674109   -2.0971640172
C        1.2054099462   -4.5134590787   -2.2509281822
H        3.7894495121    1.3242804549   -5.6667838033
H        4.7934192416    0.4681042667   -4.4871006148
H        3.5848137563    1.6360466472   -3.9410979265
H        1.7529467867    0.1169481971   -4.8537524692
H        2.9825325943   -1.0125584882   -5.3955206774
H        1.0957646337   -0.3729941014   -1.8838337045
H        2.7022232656   -0.1781805793   -1.2107532777
H        2.1253150152    0.9634426156   -2.4211022368
H        2.3122281829   -2.9066838854   -4.2029476457
H        0.8657357828   -2.1057260264   -3.6067868462
H        1.5653961763   -2.6383235251   -1.2427869448
H        3.0205164986   -3.4046661877   -1.8541307249
H        1.2644605375   -5.1201440188   -1.3406455653
H        1.6090383410   -5.1107287690   -3.0769167887
H        0.1451161166   -4.3321744320   -2.4626913321
23   
torsion grid (120,)
C        3.6637618207    0.7065644467   -4.7437992452
C        2.6892560858   -0.4767420064   -4.7060588829
C        2.6387377503   -1.2026880426   -3.3484169655
H        3.6752022476   -1.4580823868   -3.0849996124
C        2.0593680374   -0.2940725184   -2.2314814942
C        1.8639896726   -2.5276643136   -3.4648522953
C        1.9887726691   -3.4423750479   -2.2398856005
C        1.1977308214   -4.7470795272   -2.3893771976
H        3.6681950783    1.1838918728   -5.7297684650
H        4.6868772254    0.3760334346   -4.5287794603
H        3.4045393078    1.4747583374   -4.0075470010
H        1.6782585154   -0.1334541070   -4.9665098487
H        2.9778603284   -1.1959418380   -5.4832892959
H        1.1551957928   -0.7268358950   -1.7910760870
H        2.7688717935   -0.1368247148   -1.4133491698
H        1.7856688884    0.6941075955   -2.6145995564
H        2.2219508145   -3.0763999104   -4.3466120424
H        0.8025888710   -2.3082643713   -3.6519360607
H        1.6490407961   -2.9143947292   -1.3405971493
H        3.0496376437   -3.6735118061   -2.0744735691
H        1.3092750973   -5.3874273187   -1.5075147297
H        1.5374530416   -5.3179781655   -3.2614879535
H        0.1282084095   -4.5466367482   -2.5229548838
23   
torsion grid (135,)
C        3.6450186219    0.6765677715   -4.6669007934
C        2.7269229899   -0.5517656417   -4.6553483433
C        2.6639733951   -1.2731211621   -3.2963825029
H        3.6922120818   -1.5483157495   -3.0214793113
C        2.0849210360   -0.3520426184   -2.1924553976
C        1.8597286033   -2.5812252216   -3.4241072884
C        2.0146438526   -3.5421807773   -2.2386162612
C        1.1816903394   -4.8195551207   -2.3966157818
H        3.6690831516    1.1436361762   -5.6575013940
H        4.6727589175    0.3983607281   -4.4046955424
H        3.3166138632    1.4376495512   -3.9513187658
H        1.7095287101   -0.2565930121   -4.9473916513
H        3.0727976629   -1.2602154691   -5.4189299883
H        1.3446754679   -0.8719113011   -1.5767313538
H        2.8563014069    0.0462665854   -1.5269237668
H        1.5642281295    0.5056011738   -2.6338414170
H        2.1711228645   -3.1059729527   -4.3375240127
H        0.7962785560   -2.3367717859   -3.5619147880
H        1.7313918915   -3.0396012929   -1.3058064696
H        3.0750590154   -3.8068284348   -2.1311721726
H        1.3181768954   -5.4955076243   -1.5453690768
H        1.4629975395   -5.3654939236   -3.3047643402
H        0.1128861710   -4.5868046988   -2.4698260827
23   
torsion grid (150,)
C        3.5927735389    0.6756348881   -4.5160007563
C        2.7318840893   -0.5934733182   -4.5299819095
C        2.6739195781   -1.3317923324   -3.1800607672
H        3.7009864649   -1.6130218156   -2.9055384319
C        2.0962984834   -0.4255345761   -2.0711714290
C        1.8597913129   -2.6326563044   -3.3266760305
C        2.0442454396   -3.6386583174   -2.1833961326
C        1.2030755538   -4.9070914482   -2.3681640596
H        3.6336631418    1.1360512205   -5.5091566862
H        4.6215374611    0.4479506389   -4.2120474368
H        3.2007709627    1.4253126909   -3.8210408435
H        1.7076077124   -0.3404189352   -4.8371195499
H        3.1210874563   -1.2797397265   -5.2930106124
H        1.5683825307   -1.0030949698   -1.3065272292
H        2.8642550847    0.1768041838   -1.5772065987
H        1.3576274774    0.2672533106   -2.4937596921
H        2.1397748129   -3.1254742609   -4.2676477220
H        0.7939395722   -2.3791313480   -3.4235051881
H        1.7876324332   -3.1732860292   -1.2240899597
H        3.1061896690   -3.9099316269   -2.1152681669
H        1.3613117376   -5.6163804158   -1.5483984095
H        1.4571217055   -5.4172393945   -3.3047140168
H        0.1333919662   -4.6694376490   -2.4020170977
23   
torsion grid (165,)
C        3.6584427924    0.6873510191   -4.5731342267
C        2.7783421780   -0.5686082741   -4.5778848952
C        2.7002361767   -1.3022604634   -3.2258567873
H        3.7207007467   -1.6057232938   -2.9480016280
C        2.1496959732   -0.3834926549   -2.1209936770
C        1.8552612650   -2.5829747842   -3.3724266699
C        1.9838521117   -3.5841114454   -2.2170460262
C        1.1462889822   -4.8495854096   -2.4362703582
H        3.7331489409    1.1179569917   -5.5776263866
H        4.6752405179    0.4538049026   -4.2350588971
H        3.2591129582    1.4631921238   -3.9123193967
H        1.7602168582   -0.3013274710   -4.8936717127
H        3.1594533512   -1.2671454135   -5.3338865105
H        1.8434170873   -0.9492436480   -1.2362066519
H        2.8810983526    0.3657966940   -1.8041104651
H        1.2608406801    0.1510944569   -2.4806264288
H        2.1438647728   -3.0923300671   -4.3020518444
H        0.7989426188   -2.3030680578   -3.4969532145
H        1.6834075284   -3.1150586157   -1.2727675403
H        3.0401537257   -3.8601358200   -2.0985283008
H        1.2584518532   -5.5538297867   -1.6046523812
H        1.4451762822   -5.3675079823   -3.3551356230
H        0.0810484589   -4.6066865441   -2.5263772190
23   
torsion grid (180,)
C        3.5958185706    0.6470096898   -4.5260412533
C        2.6918796994   -0.5918986345   -4.5040721746
C        2.6797831124   -1.3633862534   -3.1702822714
H        3.7193201515   -1.6411422718   -2.9381515332
C        2.1508584826   -0.4965931678   -2.0174793434
C        1.8727745944   -2.6664383952   -3.3245947385
C        1.9506159576   -3.6339499999   -2.1364417094
C        1.2258359419   -4.9577545701   -2.4076653827
H        3.6283465540    1.0886970445   -5.5279674210
H        4.6235547810    0.3895605145   -4.2430195371
H        3.2466051424    1.4236567753   -3.8385733228
H        1.6627789245   -0.2987948818   -4.7548362130
H        3.0143722307   -1.2777522443   -5.2980878469
H        2.1418411569   -1.0435924666   -1.0702235165
H        2.7626066104    0.3981477403   -1.8689267588
H        1.1233406274   -0.1692166121   -2.2226179201
H        2.2279186112   -3.1917573393   -4.2218994208
H        0.8197694087   -2.4150492892   -3.5187277235
H        1.5216889859   -3.1689999031   -1.2414444049
H        3.0050113063   -3.8347050234   -1.9032887474
H        1.2900285509   -5.6336240302   -1.5478822952
H        1.6572152666   -5.4752164491   -3.2725161514
H        0.1636821070   -4.7889885337   -2.6205064925
