20   
torsion grid (-165,)
C        5.1014533928    0.3122304403    1.9476784715
C        3.7352372220   -0.0559485571    1.9053784372
C        5.5853948371    0.2143054301    0.6519152241
C        3.4189105214   -0.3876540417    0.5916518460
C        2.0766669407   -0.8147780834    0.1436365442
C        4.7264127291   -0.3194388500   -1.6186022091
C        0.6752499706   -1.9698495097   -1.4992593387
N        4.5731330098   -0.2104681016   -0.1744482948
N        1.9656215848   -1.4130456764   -1.1005972362
O        1.0836276449   -0.6224207808    0.8488030033
H        5.6720065677    0.6206232981    2.8140074166
H        3.0277820449   -0.0942871920    2.7223645866
H        6.5670857424    0.4288322363    0.2499279572
H        4.8352790020   -1.3631734284   -1.9388062864
H        5.6296163986    0.2166739744   -1.9143925317
H        3.8710793033    0.1248368835   -2.1304010288
H        0.7330234376   -2.2738982671   -2.5474595431
H       -0.0936841681   -1.2039077305   -1.3905237409
H        0.3847875364   -2.8299782441   -0.8835787198
H        2.7818990231   -1.8995949271   -1.4455996001
20   
torsion grid (-150,)
C        4.8591291354    2.3120865680    0.8005386761
C        3.5094087834    2.2424652889    0.3734308537
C        5.5346870976    1.2739054240    0.1775759279
C        3.3903314224    1.1570202483   -0.4870375543
C        2.1282547601    0.6987840104   -1.1077335455
C        5.0504372965   -0.5251135427   -1.4773502698
C        0.7437904211   -1.1878395820   -1.8453890141
N        4.6477709312    0.5649323921   -0.5973591598
N        2.0202804948   -0.6527270137   -1.3813725894
O        1.2116652409    1.4833201878   -1.3589526951
H        5.2966332473    3.0361739277    1.4754569743
H        2.6878645555    2.8895907025    0.6494571430
H        6.5810580263    0.9988255205    0.2048610193
H        6.1107324334   -0.4144214496   -1.7126090431
H        4.4786306173   -0.4934367408   -2.4051480798
H        4.9050210976   -1.5042017692   -1.0050829034
H       -0.0285631919   -1.1519882229   -1.0672125149
H        0.8898882426   -2.2224923206   -2.1657499712
H        0.3950674599   -0.5959663918   -2.6927846071
H        2.5973054011   -1.2741209737   -0.8298926387
20   
torsion grid (-135,)
C        4.8149817010    2.2101075842    0.8493822513
C        3.4789089246    2.1649248464    0.3719249847
C        5.5154325033    1.2107363444    0.1923837138
C        3.3979428163    1.1356100982   -0.5574550969
C        2.1618944178    0.6486780566   -1.2161470226
C        5.0726416358   -0.5043009977   -1.5706894990
C        0.7653884291   -1.2986780825   -1.7639885572
N        4.6552481311    0.5467270450   -0.6508379833
N        2.0128763901   -0.7221362303   -1.2750411388
O        1.3029114579    1.4163296602   -1.6518815818
H        5.2263550476    2.8962412377    1.5782585006
H        2.6478282513    2.7950339423    0.6594457809
H        6.5622461151    0.9395095495    0.2350513094
H        6.1241002541   -0.3561806874   -1.8257945345
H        4.4801014865   -0.4601660308   -2.4846796733
H        4.9597931245   -1.5004066214   -1.1274486404
H       -0.0625382633   -1.1487573314   -1.0601207201
H        0.9097537032   -2.3688737228   -1.9320000462
H        0.4962262244   -0.8201003520   -2.7068006064
H        2.5521425656   -1.2688933749   -0.6166039802
20   
torsion grid (-120,)
C        4.7709343553    1.9697326991    0.9264080213
C        3.4572271743    1.9985175634    0.3793718522
C        5.4598899150    0.9602963024    0.2768169965
C        3.3853042812    1.0077150838   -0.5881793586
C        2.1681433022    0.5439934108   -1.3098700747
C        5.0675452571   -0.5516423075   -1.6722760133
C        0.6257189677   -1.3453376534   -1.6519696846
N        4.6107422322    0.3510635967   -0.6213855461
N        1.8709495857   -0.7910447871   -1.1329705041
O        1.4582377648    1.2926403081   -1.9799951227
H        5.1654447080    2.6045948912    1.7092117095
H        2.6363900488    2.6435755927    0.6643191167
H        6.4913358715    0.6432418985    0.3594923683
H        5.4962948571    0.0080583000   -2.5106059170
H        4.2316245755   -1.1484363854   -2.0382488710
H        5.8282728521   -1.2223734751   -1.2651364284
H       -0.2451223349   -1.0152132021   -1.0723258167
H        0.6832078274   -2.4364980459   -1.6293741987
H        0.4904889327   -1.0135080767   -2.6825027891
H        2.2956826566   -1.2451836535   -0.3341979675
20   
torsion grid (-105,)
C        4.6672293647    1.9467208724    0.9117245021
C        3.3371607969    1.9035599091    0.4003660267
C        5.4073612768    1.0162474948    0.2039249894
C        3.3115992728    0.9500691008   -0.6043033777
C        2.1479727814    0.4520724452   -1.4044570456
C        5.0257381142   -0.5043002992   -1.7568607095
C        0.5331202902   -1.4018926105   -1.6373889315
N        4.5758434714    0.3919360644   -0.7011006636
N        1.7166115384   -0.7990655896   -1.0365249146
O        1.6197527992    1.0957125284   -2.3094281193
H        5.0384275721    2.5790545976    1.7078421301
H        2.4872914327    2.4891570735    0.7263662719
H        6.4569817716    0.7587899386    0.2560899242
H        5.3052607091    0.0541344053   -2.6565627921
H        4.2298451590   -1.2067613345   -2.0117784956
H        5.8907529588   -1.0698435893   -1.4032935490
H       -0.3935458585   -0.9932912265   -1.2161770693
H        0.5569585382   -2.4824963728   -1.4755041769
H        0.5377133315   -1.1967152809   -2.7089794882
H        2.0457280924   -1.1528997465   -0.1474283688
20   
torsion grid (-90,)
C        4.6909579724    1.9000082092    0.9402534721
C        3.3435455369    1.6713631562    0.5343819334
C        5.4955347681    1.0941771736    0.1532540542
C        3.3717355531    0.7149922004   -0.4696490504
C        2.2901093834    0.2494318589   -1.3989777754
C        5.1539841213   -0.4798376803   -1.7845702116
C        0.4036424962   -1.3324471399   -1.6411217052
N        4.6909720697    0.3793601097   -0.7052949010
N        1.5537979614   -0.8008423127   -0.9210837895
O        2.1355997504    0.7166820590   -2.5274249468
H        5.0323334774    2.5708463288    1.7178942587
H        2.4526639599    2.1486413598    0.9226701781
H        6.5688456429    0.9584148022    0.1448965257
H        5.0553766631    0.0231131376   -2.7510678147
H        4.5701908533   -1.4039475379   -1.8090860921
H        6.2014001274   -0.7337415046   -1.6121492952
H       -0.5071435366   -0.7539269852   -1.4436684366
H        0.2396667084   -2.3717857057   -1.3455478690
H        0.6120206759   -1.2886952920   -2.7110396915
H        1.6817306427   -1.0417362730    0.0534256783
20   
torsion grid (-75,)
C        4.7678494585    1.7837496852    0.9920273661
C        3.4401730046    1.4577752110    0.5978628306
C        5.6210692447    1.0557595537    0.1781294155
C        3.5264693614    0.5183080750   -0.4240578937
C        2.4775854072    0.0618208049   -1.3843852058
C        5.3893421683   -0.5198280254   -1.7701714849
C        0.3655808432   -1.2251481735   -1.5673906877
N        4.8659526585    0.3038821354   -0.6889510512
N        1.5430587914   -0.7768109574   -0.8374847442
O        2.5067293711    0.3503052116   -2.5829357368
H        5.0672489813    2.4661838556    1.7767420296
H        2.5206551457    1.8659670013    0.9987520389
H        6.7012542056    0.9952236864    0.1636558155
H        5.2019880616   -0.0477057013   -2.7376177810
H        4.9117876549   -1.5031757264   -1.7633541795
H        6.4629534676   -0.6513851579   -1.6239136614
H       -0.5164561241   -0.6155518489   -1.3350652071
H        0.1513206947   -2.2698970629   -1.3238073271
H        0.5772449911   -1.1403636971   -2.6337012201
H        1.5898551969   -0.9216598889    0.1629253128
20   
torsion grid (-60,)
C        4.7144834714    1.7295867890    1.0129019359
C        3.4110453764    1.3321206588    0.6113517324
C        5.6088250101    1.0777828668    0.1769124190
C        3.5518523042    0.4317808382   -0.4425212146
C        2.5226398725   -0.0720167321   -1.3894112781
C        5.4871320690   -0.4718601645   -1.7968044235
C        0.2954522577   -1.1544644812   -1.5154042074
N        4.9020964410    0.3100900826   -0.7140392475
N        1.4841346021   -0.7345493571   -0.7882209070
O        2.6313118156    0.0390160400   -2.6144084985
H        4.9736820683    2.4103139395    1.8131993760
H        2.4694596742    1.6763243407    1.0213083022
H        6.6906737941    1.0858264397    0.1604153565
H        5.2676045911   -0.0127779257   -2.7626819580
H        5.0813071984   -1.4863420860   -1.7952663964
H        6.5666774874   -0.5240046307   -1.6436187549
H       -0.5347007309   -0.4488124808   -1.3853505732
H       -0.0219030205   -2.1445857139   -1.1747140504
H        0.5491387596   -1.2041846860   -2.5747196414
H        1.4835463475   -0.7699573399    0.2227809811
20   
torsion grid (-45,)
C        4.6783904053    1.6606031049    1.0617066483
C        3.3911340625    1.2308240701    0.6473924523
C        5.5966559663    1.0400105573    0.2264453428
C        3.5638845927    0.3481888203   -0.4184008834
C        2.5541635145   -0.2319777794   -1.3336633955
C        5.5484401911   -0.5243392612   -1.7340420801
C        0.2629532203   -1.1819242169   -1.4271181336
N        4.9200868204    0.2621105585   -0.6771786363
N        1.4278578863   -0.6966271370   -0.7047983370
O        2.7295325089   -0.3227993793   -2.5541549313
H        4.9130996016    2.3456783246    1.8658155666
H        2.4385780934    1.5515871490    1.0509129572
H        6.6777109792    1.0832884106    0.2150281063
H        5.3214047364   -0.1011568489   -2.7136780739
H        5.1834813322   -1.5534320618   -1.7115274684
H        6.6270675612   -0.5258580950   -1.5656285382
H       -0.6060236746   -0.5325433177   -1.2672702509
H        0.0079379810   -2.2004492798   -1.1143890073
H        0.5098069225   -1.1899898460   -2.4890964192
H        1.3977644991   -0.6409462219    0.3041568418
20   
torsion grid (-30,)
C        4.7219968564    1.6121809718    0.8541562870
C        3.4525517190    1.1423293629    0.4342235625
C        5.6656474240    1.0008356266    0.0393300961
C        3.6587993307    0.2507808956   -0.6195041518
C        2.6783455571   -0.4340075682   -1.4866601374
C        5.6935790588   -0.5989644770   -1.8868004964
C        0.4101872276   -1.3884879538   -1.6078100368
N        5.0218402267    0.1885141478   -0.8563052386
N        1.4709632860   -0.6967752379   -0.8907328941
O        2.9152189295   -0.7491095305   -2.6596161341
H        4.9302920030    2.3181013761    1.6474552579
H        2.4888263007    1.4460182851    0.8236500198
H        6.7448264931    1.0783155313    0.0345272731
H        5.4700631458   -0.2052730102   -2.8792797428
H        5.3621595151   -1.6381313301   -1.8505874340
H        6.7684129956   -0.5569945381   -1.6994075640
H       -0.5437282718   -1.1973238241   -1.1098115080
H        0.5815696125   -2.4714548998   -1.6539501991
H        0.3639912477   -1.0099296587   -2.6301877056
H        1.4170804674   -0.6291107026    0.1160229237
20   
torsion grid (-15,)
C        4.7310014999    1.5748571188    0.8839883136
C        3.4660250682    1.0952299823    0.4671988224
C        5.6730244295    1.0118406869    0.0325335239
C        3.6698547846    0.2514042981   -0.6270401380
C        2.6982823297   -0.4837003882   -1.4590401244
C        5.7152195968   -0.5323633498   -1.9325134116
C        0.4024788461   -1.3527713284   -1.6103467060
N        5.0325912502    0.2179493444   -0.8803169403
N        1.4341611013   -0.5829020119   -0.9299286532
O        2.9808052324   -0.9619840602   -2.5653312281
H        4.9380905246    2.2561062021    1.6988346291
H        2.5067457333    1.3663881270    0.8902885016
H        6.7496547853    1.1163924933    0.0104373802
H        5.4378479697   -0.1548006752   -2.9173878575
H        5.4460193337   -1.5885080917   -1.8869699866
H        6.7907817661   -0.4229226392   -1.7792376558
H       -0.5749293804   -1.0709077859   -1.2106847602
H        0.5437753104   -2.4344487649   -1.4888505077
H        0.4326317816   -1.1257228718   -2.6769723581
H        1.3241891655   -0.4085150858    0.0592400076
20   
torsion grid (0,)
C        4.7273370800    1.5314084101    0.9253169532
C        3.4677285373    1.0230295199    0.5304482575
C        5.6611203976    1.0228637975    0.0315792745
C        3.6633941659    0.2187146193   -0.5955702233
C        2.7017992890   -0.5653396257   -1.3942238961
C        5.7035901920   -0.4649450778   -1.9721175738
C        0.3727518770   -1.3281882318   -1.6039879486
N        5.0207652455    0.2325016436   -0.8834942526
N        1.3956604587   -0.5051863270   -0.9748985295
O        3.0299197304   -1.2182274405   -2.3941666155
H        4.9365739926    2.1923264520    1.7561590417
H        2.5198123675    1.2387074346    1.0079843979
H        6.7320708616    1.1670287092   -0.0207930078
H        5.3215248014   -0.1368032418   -2.9392905287
H        5.5496174358   -1.5419579652   -1.8960907791
H        6.7689764741   -0.2373436098   -1.8973437649
H       -0.6118314897   -0.9216869351   -1.3593925472
H        0.4221921894   -2.3745440683   -1.2760119197
H        0.5115090051   -1.3053778735   -2.6857938851
H        1.2026461350   -0.1215100098   -0.0610199587
20   
torsion grid (15,)
C        4.6014454511    1.3812598111    1.2937864901
C        3.3406288286    0.8165379681    0.9848466007
C        5.4719365549    0.9946280816    0.2827841416
C        3.4752056843    0.1007619610   -0.2069661867
C        2.4872090610   -0.6983090157   -0.9565213903
C        5.3991364659   -0.3631005049   -1.8147408004
C        0.0991552149   -1.1635167665   -1.3106898813
N        4.7938519566    0.2190173669   -0.6185555382
N        1.1774525742   -0.4974520687   -0.5938120955
O        2.8015549772   -1.5114328435   -1.8354590408
H        4.8550786278    1.9891105865    2.1523606871
H        2.4422843606    0.8871686686    1.5854674659
H        6.5214240516    1.2145678678    0.1387242715
H        4.8369395178   -0.0800451812   -2.7057508881
H        5.4075606496   -1.4518495957   -1.7518477238
H        6.4205216787    0.0151015481   -1.8922705906
H       -0.0769948397   -0.7207688364   -2.2993644758
H       -0.8166652193   -1.0962011812   -0.7181982311
H        0.3577522167   -2.2140144995   -1.4522923530
H        0.9574693584    0.3380855943   -0.0700171090
20   
torsion grid (30,)
C        4.6429671663    1.3278247558    1.2854203360
C        3.3808487255    0.7564120278    0.9867760813
C        5.4946382255    0.9864653537    0.2431642258
C        3.4966633227    0.0894712296   -0.2336643994
C        2.5204767495   -0.7611856931   -0.9447012489
C        5.3837280109   -0.3243490694   -1.8876179429
C        0.1265254721   -1.1667921723   -1.3672873049
N        4.8046511617    0.2294783166   -0.6664562571
N        1.2064998045   -0.4369399508   -0.7201513237
O        2.8500657158   -1.6957387995   -1.6857838279
H        4.9090675200    1.9103081991    2.1577365931
H        2.4934929134    0.7872461097    1.6066954467
H        6.5358899573    1.2302312752    0.0787776430
H        4.7664354335   -0.0725635362   -2.7516838299
H        5.4514295674   -1.4111985886   -1.8232937753
H        6.3783400689    0.1068634959   -2.0176987979
H       -0.0197534127   -0.8502409101   -2.4078116245
H       -0.8000672057   -1.0066074100   -0.8101769246
H        0.3656796617   -2.2314059085   -1.3682825179
H        1.0071873883    0.4603891107   -0.3004885219
20   
torsion grid (45,)
C        4.7904611584    1.1394300856    1.3106579137
C        3.5134368221    0.5670621505    1.0761229543
C        5.6324645203    0.6625770283    0.3158912301
C        3.6112798363   -0.2299723194   -0.0640337181
C        2.6335949666   -1.1893148381   -0.6279531169
C        5.4769258228   -0.8880779273   -1.6503594459
C        0.2146351393   -1.5513711759   -1.0478822165
N        4.9224920632   -0.1781936417   -0.5018021065
N        1.3455312740   -0.7207552577   -0.6662520159
O        2.9580805690   -2.3007684888   -1.0615276012
H        5.0702184222    1.8116728479    2.1111706337
H        2.6264349661    0.6873477659    1.6859453063
H        6.6771130142    0.8667848683    0.1218086192
H        4.8872349700   -0.6833357877   -2.5470683171
H        5.4715117526   -1.9643176710   -1.4734431533
H        6.4984034141   -0.5376259114   -1.8096037174
H       -0.3558892536   -1.0815121532   -1.8563591910
H       -0.4549232605   -1.7324743185   -0.1984395596
H        0.6068948220   -2.5057770215   -1.4000771623
H        1.1802276007    0.2220112240   -0.3407861180
20   
torsion grid (60,)
C        4.8314912997    1.1161199247    1.3454787055
C        3.5471269157    0.5399868673    1.1527176566
C        5.6308009512    0.6754644725    0.3012875001
C        3.5965528769   -0.2137714480   -0.0175828759
C        2.6237236737   -1.2149216440   -0.5294611939
C        5.3911207858   -0.8486831129   -1.6825061889
C        0.2353320167   -1.5501462206   -1.1136034225
N        4.8866565793   -0.1437252290   -0.5100675899
N        1.3674357921   -0.7130663817   -0.7472937806
O        2.9408609679   -2.3790810062   -0.7923467642
H        5.1414839608    1.7695789757    2.1504241049
H        2.6844072556    0.6382687122    1.8000723839
H        6.6628250549    0.8966744588    0.0631798113
H        4.7644464680   -0.6391651860   -2.5534120300
H        5.3936266251   -1.9259561227   -1.5073016787
H        6.4052325373   -0.5006246925   -1.8869143595
H       -0.2571068176   -1.1613527174   -2.0112339722
H       -0.4993897146   -1.6101479735   -0.3018090307
H        0.6154487811   -2.5505078314   -1.3225486421
H        1.2146432703    0.2627374642   -0.5293654392
20   
torsion grid (75,)
C        4.8243722734    1.0974950671    1.3637169357
C        3.5261480715    0.5300849562    1.2322815881
C        5.5596519851    0.6840400909    0.2642813387
C        3.5037988541   -0.1872217224    0.0411367600
C        2.5136828338   -1.1986721782   -0.4367024402
C        5.1951437047   -0.8214482299   -1.7192426022
C        0.1840328529   -1.4860090536   -1.2388231710
N        4.7621153895   -0.1082805902   -0.5254317105
N        1.3253016389   -0.6652773297   -0.8593924267
O        2.7829934251   -2.3989834934   -0.5205809970
H        5.1809141295    1.7337589280    2.1632011045
H        2.7003810994    0.6189631528    1.9273082869
H        6.5763890535    0.9091777732   -0.0293764844
H        4.4707966990   -0.6843563430   -2.5263045622
H        5.2912630564   -1.8906022378   -1.5149529303
H        6.1571261245   -0.4179595338   -2.0406074138
H       -0.3112585005   -1.0563870468   -2.1146734799
H       -0.5445708225   -1.5743390490   -0.4234902347
H        0.5534509347   -2.4814876711   -1.4867791811
H        1.1954246653    0.3283094370   -0.7184911889
20   
torsion grid (90,)
C        4.7905670203    0.9781949225    1.4736784784
C        3.5009010850    0.3723820245    1.4287814328
C        5.4581576905    0.6004915290    0.3213571174
C        3.4178067159   -0.3334626758    0.2377415511
C        2.3935415143   -1.3211670980   -0.2371527726
C        4.9933896119   -0.9169657748   -1.6356069166
C        0.2113803237   -1.5483595543   -1.3794858821
N        4.6226474652   -0.1995474133   -0.4250171967
N        1.3478948969   -0.7604601171   -0.9196090202
O        2.5269961863   -2.5371338034   -0.0984070906
H        5.1830504867    1.6185702733    2.2528909425
H        2.7201349196    0.4376332365    2.1760505062
H        6.4490661642    0.8478243694   -0.0356154255
H        4.1978129987   -0.8364016348   -2.3812021495
H        5.1679567810   -1.9755327882   -1.4217822916
H        5.9024255127   -0.4742302645   -2.0466544859
H       -0.2627115980   -1.0417367916   -2.2238827496
H       -0.5314180171   -1.6986618898   -0.5864813666
H        0.5724674099   -2.5265020723   -1.7003482082
H        1.2698530643    0.2479477126   -0.8866809048
20   
torsion grid (105,)
C        4.8609021436    1.0384924855    1.4630064187
C        3.6530042264    0.2912103997    1.5865026847
C        5.4059769915    0.7329045050    0.2285875262
C        3.5033190809   -0.4468457884    0.4238487046
C        2.3687730204   -1.3294918757    0.0043939701
C        4.8939140596   -0.8583104392   -1.6443404044
C        0.3568163403   -1.4549707834   -1.4202011683
N        4.5658942572   -0.1510505074   -0.4145026731
N        1.5627955668   -0.7772829252   -0.9603695088
O        2.1666923670   -2.4478247878    0.4745409604
H        5.2799792891    1.7228559301    2.1892672574
H        2.9611889348    0.2913950349    2.4188861288
H        6.3248983566    1.0593080468   -0.2401842278
H        3.9794311419   -1.0966128388   -2.1910729158
H        5.4317081646   -1.7887760485   -1.4335363441
H        5.5185659044   -0.2178237601   -2.2709713773
H        0.0378188453   -1.0163615537   -2.3689043516
H       -0.4595917518   -1.3760374036   -0.6921703484
H        0.5776970513   -2.5134413120   -1.5678228826
H        1.6591351885    0.2161956088   -1.1261004874
20   
torsion grid (120,)
C        4.8734031297    0.9863379014    1.5661197734
C        3.6938744716    0.2035120936    1.7137596966
C        5.3626306521    0.7483595700    0.2934942597
C        3.5003700027   -0.4894602016    0.5283091433
C        2.3100089283   -1.2974009080    0.1443225907
C        4.8612839185   -0.8168588505   -1.5870826153
C        0.4012878110   -1.4639757814   -1.4032541835
N        4.5119662256   -0.1221179657   -0.3527852324
N        1.6651788791   -0.8623171680   -0.9940914800
O        1.9048254523   -2.2531071696    0.8047399569
H        5.3095836266    1.6531391450    2.2986465834
H        3.0331857327    0.1584202843    2.5696515472
H        6.2600607336    1.1042427698   -0.1956018204
H        3.9570946935   -1.1715869835   -2.0826616718
H        5.5123160517   -1.6739558758   -1.3835378767
H        5.3810749174   -0.1248178437   -2.2542545369
H        0.1779391763   -1.1631326050   -2.4299105676
H       -0.4272503245   -1.1661402789   -0.7489549843
H        0.4926283538   -2.5503279323   -1.3584828016
H        1.8568096320    0.0872830924   -1.2874110266
20   
torsion grid (135,)
C        4.9571486248    0.7773770870    1.7128282336
C        3.7217183106    0.0823692693    1.7919205571
C        5.4735794067    0.5450229727    0.4478979779
C        3.5123998623   -0.5469481670    0.5714680058
C        2.2928810125   -1.2862456513    0.1644871476
C        4.8569582917   -0.7682411070   -1.5872393470
C        0.5498026283   -1.5760411899   -1.5451318484
N        4.5918180190   -0.2450150548   -0.2527514298
N        1.8225911020   -1.0163945690   -1.1044332048
O        1.7128555920   -2.0655162508    0.9217224799
H        5.4249349927    1.3704316759    2.4879145336
H        3.0380796800    0.0347919464    2.6290152500
H        6.4096826636    0.8539503365    0.0013011462
H        4.4206401664   -1.7615393769   -1.6946135730
H        5.9369176326   -0.8411156142   -1.7317084139
H        4.4452843354   -0.1182829814   -2.3679067362
H        0.4529597643   -1.4339401380   -2.6244072437
H       -0.3039159762   -1.1094735225   -1.0383177564
H        0.5322737707   -2.6434989996   -1.3201892684
H        2.1226327391   -0.1484404255   -1.5285387562
20   
torsion grid (150,)
C        5.0200916876    0.6949887303    1.7444862973
C        3.7583048662    0.0531242272    1.8130736964
C        5.5034759929    0.5007793657    0.4595727543
C        3.4951634440   -0.5036390658    0.5665652689
C        2.2499752343   -1.2113760614    0.1971057208
C        4.8192190240   -0.6915742673   -1.6190037859
C        0.5602130045   -1.6793597647   -1.5188431978
N        4.5795444997   -0.2174155263   -0.2616806973
N        1.8600248016   -1.1410718262   -1.1285451485
O        1.5855132450   -1.8255495096    1.0336624893
H        5.5271994253    1.2303650935    2.5365928203
H        3.0858408338   -0.0080738155    2.6580296132
H        6.4427354374    0.7946686350    0.0093360195
H        4.4030906868   -1.6908093551   -1.7502381625
H        5.8962718115   -0.7321553436   -1.7924105276
H        4.3771792813   -0.0231545246   -2.3676842912
H        0.4957056675   -1.6909818351   -2.6098126103
H       -0.2717521409   -1.0928663541   -1.1098200912
H        0.4690427298   -2.6994749417   -1.1434319565
H        2.1940319002   -0.3443883331   -1.6550549412
20   
torsion grid (165,)
C        5.0510853693    0.6140287923    1.8184371085
C        3.7541899207    0.0476202815    1.8524216469
C        5.5256881058    0.4569850460    0.5250777333
C        3.4572798698   -0.4255131522    0.5780730741
C        2.1905338483   -1.0958716996    0.2158211471
C        4.7894642150   -0.5739824178   -1.6133722661
C        0.5782889254   -1.7624738721   -1.5023969839
N        4.5659121857   -0.1703286449   -0.2321001410
N        1.8874183055   -1.2331094541   -1.1283293289
O        1.4379808029   -1.5387072191    1.0864415871
H        5.5871376452    1.0769017603    2.6367020359
H        3.0765346069   -0.0209650803    2.6923685256
H        6.4773492151    0.7291155380    0.0873289668
H        4.4364104305   -1.5934239892   -1.7776498913
H        5.8606124907   -0.5367490277   -1.8183357023
H        4.2885851576    0.0992283842   -2.3203059125
H        0.5593439632   -1.9193067200   -2.5838236062
H       -0.2397469528   -1.0905083933   -1.2152757535
H        0.4208894980   -2.7175163391   -0.9993675408
H        2.2833764553   -0.5475749033   -1.7569716991
20   
torsion grid (180,)
C        5.1016621321    0.5084328504    1.8400303222
C        3.7714005417    0.0270321288    1.8482667644
C        5.5657508900    0.3845775007    0.5396391767
C        3.4435980723   -0.3660774284    0.5537337058
C        2.1461726952   -0.9804928057    0.1955744778
C        4.7654902912   -0.4604005515   -1.6511403104
C        0.5876360312   -1.8322180208   -1.4879534041
N        4.5704377991   -0.1474076145   -0.2442764610
N        1.9125091212   -1.3384092631   -1.1204892351
O        1.3102304232   -1.2203422178    1.0706138120
H        5.6650541052    0.8971061774    2.6782538189
H        3.0893629420   -0.0403271612    2.6845111701
H        6.5283230248    0.6301518694    0.1101611907
H        4.5233116051   -1.5061927297   -1.8571649004
H        5.8142961389   -0.2951503039   -1.9013443447
H        4.1648627055    0.1914588814   -2.2974836636
H        0.6215313450   -2.1895764291   -2.5202541458
H       -0.1856899820   -1.0600167262   -1.3930615372
H        0.3182683788   -2.6600842918   -0.8308951438
H        2.4079520628   -0.8309037905   -1.8386059941
