26   
torsion grid (-165,)
C        3.0458033396   -0.0760086786    1.3600209715
C        0.9657351024    1.2857839977    1.6885754000
C        1.1276078930   -0.3440148083   -0.1088962486
C        0.8923255987    2.4142786465    0.6571380639
C        1.0564421129    0.7814696735   -1.1429515090
C       -1.2078251133    2.3650454695   -2.8300089982
N        1.6883935772    0.1295931274    1.1550461744
N        0.2502258577    1.8894060839   -0.5735167902
N        3.5713379661    0.4800937478    2.5299073379
O        3.7546713357   -0.6983879624    0.5703263692
O        1.1542615080    3.5034212354   -2.4451464958
O       -0.7762027145    4.1914972041   -0.9407931965
S       -0.0575424498    3.1558361004   -1.6890745917
H        1.4534443658    1.6666308419    2.5847805653
H       -0.0493293991    0.9722530579    1.9573190933
H        0.1189223903   -0.7265779731    0.0839397691
H        1.7540523711   -1.1515777317   -0.4846888112
H        0.2819204369    3.2327098283    1.0420203552
H        1.9038675919    2.7896584134    0.4479735080
H        2.0656817355    1.1192994690   -1.4099564092
H        0.5685849901    0.4014781289   -2.0433311424
H       -1.5492933860    3.1643197704   -3.4900641022
H       -0.6922878025    1.6017094731   -3.4109516685
H       -2.0402735886    1.9527549401   -2.2602146137
H        4.5067786243    0.1263758945    2.6981397970
H        2.9853212115    0.4446299507    3.3562338897
26   
torsion grid (-150,)
C        3.0691210031   -0.0617935589    1.3800555676
C        0.9476008851    1.2520093339    1.6201626335
C        1.2396366515   -0.3401526162   -0.1968982164
C        0.9207174489    2.4052017214    0.6131507147
C        1.2136538251    0.8029640527   -1.2133279693
C       -1.3451163975    2.3868344197   -2.6995083060
N        1.7206031606    0.1198046576    1.1052319902
N        0.3758071227    1.8945375605   -0.6649721188
N        3.5192970407    0.4830257981    2.5863760644
O        3.8329975054   -0.6541378779    0.6191452794
O        1.1363840390    3.3148076567   -2.7344094037
O       -0.4943178837    4.2648766569   -1.0232055546
S        0.0239162580    3.1297420799   -1.7936200387
H        1.3709087092    1.6158704246    2.5553189894
H       -0.0770766910    0.9159463715    1.8155372563
H        0.2266889759   -0.7381730644   -0.0678125008
H        1.8975142872   -1.1336103004   -0.5480922798
H        0.2730719595    3.2060204491    0.9716676919
H        1.9371134857    2.8030825014    0.4834748249
H        2.2322618881    1.1514164068   -1.4230325480
H        0.7782319103    0.4443189764   -2.1493537055
H       -1.6213326440    3.1067096100   -3.4718244923
H       -1.0187718757    1.4536364987   -3.1584931831
H       -2.1674510581    2.2241221789   -2.0035719891
H        4.4516263664    0.1449318584    2.7983704797
H        2.8908775353    0.4194631695    3.3791741478
26   
torsion grid (-135,)
C        3.0422987905   -0.0868287592    1.4778377984
C        0.9026892709    1.2149457941    1.5962696420
C        1.3169853677   -0.3609198629   -0.2144755221
C        0.9325904071    2.3804283334    0.6027069097
C        1.3478368437    0.7876420909   -1.2245394320
C       -1.4590083327    2.3998839963   -2.5180746453
N        1.7137438743    0.0930013726    1.1184848366
N        0.4900777463    1.8779699664   -0.7129973256
N        3.4126639858    0.4489868497    2.7153527297
O        3.8556873152   -0.6702172461    0.7627452717
O        1.0587053070    3.0886933464   -2.9488858474
O       -0.2451597916    4.2900373971   -1.1111993651
S        0.0778617695    3.0694600644   -1.8575803359
H        1.2630562067    1.5691086319    2.5611144635
H       -0.1301818980    0.8699613663    1.7214456543
H        0.2996394318   -0.7638584406   -0.1499534978
H        1.9987860249   -1.1500569964   -0.5279115994
H        0.2560263758    3.1727806562    0.9237426167
H        1.9507552579    2.7911878541    0.5501413326
H        2.3775314390    1.1330461876   -1.3777907972
H        0.9620704098    0.4422392919   -2.1865953213
H       -1.7809554873    3.0782966809   -3.3102095364
H       -1.2682154980    1.4067067645   -2.9265022078
H       -2.1899357507    2.3627796309   -1.7109473769
H        4.3306000172    0.1110022761    2.9831423828
H        2.7353286476    0.3745990433    3.4658374000
26   
torsion grid (-120,)
C        3.0159907427   -0.0780652470    1.5306968904
C        0.8515046362    1.1877085927    1.5385391679
C        1.3985534408   -0.3559873193   -0.2662389884
C        0.9114159419    2.3669179732    0.5617791294
C        1.4648043388    0.8046106350   -1.2605041955
C       -1.5659508882    2.5098133730   -2.3460585541
N        1.7097606517    0.0885253260    1.0929355074
N        0.5633597687    1.8742828788   -0.7834886910
N        3.3029611375    0.4479724350    2.7947740297
O        3.8798395034   -0.6414811515    0.8602053448
O        0.9293531891    2.8882824969   -3.1320711797
O       -0.0035844746    4.3303896300   -1.2354726593
S        0.1047910941    3.0423892029   -1.9292246115
H        1.1517358780    1.5362621963    2.5257915939
H       -0.1795605152    0.8205586296    1.6028577410
H        0.3868701089   -0.7782216309   -0.2643006502
H        2.1118182326   -1.1290430301   -0.5483444242
H        0.2014609947    3.1402439098    0.8564112918
H        1.9194658795    2.8041380172    0.5737974029
H        2.4961745563    1.1686012993   -1.3475234051
H        1.1406017446    0.4712471135   -2.2478180108
H       -1.9360836987    3.1923340580   -3.1134124145
H       -1.5213154335    1.4900713979   -2.7303513668
H       -2.1778356443    2.5661110408   -1.4458261946
H        4.2082368542    0.1194131986    3.1128028725
H        2.5834038014    0.3518871924    3.5023144487
26   
torsion grid (-105,)
C        3.0257010218   -0.0526310759    1.5949525845
C        0.8057290374    1.1083281134    1.4940705226
C        1.5142774236   -0.4008441644   -0.2828879049
C        0.8400069818    2.2868792281    0.5144240513
C        1.5629484855    0.7630238054   -1.2732628732
C       -1.6295132162    2.6675384304   -2.1618263610
N        1.7389398140    0.0574135934    1.0890136573
N        0.5726985830    1.7756501621   -0.8430153782
N        3.2231678554    0.4839726242    2.8723217563
O        3.9474688810   -0.5767870055    0.9715196814
O        0.7679371245    2.5813941941   -3.2735259876
O        0.3242957522    4.2850079096   -1.4168885196
S        0.1430109071    2.9505827718   -1.9999496241
H        1.0475643508    1.4764577720    2.4901691794
H       -0.2062043520    0.6867198189    1.5194989385
H        0.5284569364   -0.8781392273   -0.3278213179
H        2.2812284056   -1.1328021627   -0.5318247821
H        0.0755078100    3.0169597220    0.7863186633
H        1.8168743737    2.7860848692    0.5640247291
H        2.5751842393    1.1866462686   -1.3008870699
H        1.3089945229    0.4195710426   -2.2762500403
H       -2.0043888797    3.3984394088   -2.8807912976
H       -1.7827990785    1.6508144359   -2.5236255773
H       -2.0958054661    2.8143470995   -1.1869487417
H        4.1255456784    0.1962194717    3.2351256292
H        2.4746527750    0.3496157064    3.5426760427
26   
torsion grid (-90,)
C        3.0324681624   -0.0116791227    1.6697847451
C        0.7444855756    0.9935479166    1.4793905710
C        1.6255102673   -0.4576379366   -0.2672990570
C        0.7396092296    2.1728162249    0.4997164063
C        1.6392036834    0.7102821578   -1.2528473083
C       -1.6085488362    2.8629288154   -1.9473057448
N        1.7618452426    0.0093492025    1.1136613831
N        0.5578739287    1.6484360475   -0.8676389399
N        3.1397273127    0.5336207338    2.9544564127
O        4.0127098674   -0.4668408012    1.0828830278
O        0.5822961937    2.3104182808   -3.3363031654
O        0.6690804965    4.1590300510   -1.5780191248
S        0.1914735034    2.8457390145   -2.0293683026
H        0.9207268831    1.3764171851    2.4836153414
H       -0.2370218013    0.5049839042    1.4645848451
H        0.6763613191   -0.9986763737   -0.3545053388
H        2.4486621937   -1.1364603087   -0.4852019455
H       -0.0856413871    2.8456056662    0.7470644878
H        1.6748169725    2.7410697034    0.5855912396
H        2.6206149099    1.2023363073   -1.2301014844
H        1.4498720564    0.3576603181   -2.2666835733
H       -1.9443579687    3.6437806370   -2.6319608096
H       -1.9740355892    1.8844628133   -2.2573638203
H       -1.9175152011    3.0969438964   -0.9278578589
H        4.0459558947    0.3111940429    3.3520295833
H        2.3777142834    0.3401177169    3.5945430478
26   
torsion grid (-75,)
C        1.3255492492   -2.3122981729    0.8618633381
C        0.9628505660   -0.7529648871    2.7885390546
C        0.0442935439   -0.2579880964    0.5883794351
C        1.8812500064    0.4709219433    2.6839920677
C        0.9595977949    0.9588603180    0.4622272041
C        1.4600205511    3.6475807204    3.4462945655
N        0.6285652608   -1.2751912407    1.4649592106
N        1.2286970797    1.4774418829    1.8255533082
N        1.9489886836   -3.2110247225    1.7356817269
O        1.4061554051   -2.4440515636   -0.3580182863
O        1.3295478664    3.8006207111    0.7939470269
O        3.4432423715    2.8782517915    1.8744273901
S        1.9797075039    3.0093761927    1.8418445051
H        1.4622547818   -1.5122128501    3.3886795004
H        0.0346694103   -0.4671674064    3.2972390934
H       -0.9173301359    0.0505314762    1.0135973870
H       -0.1205752193   -0.7007317248   -0.3927201627
H        2.0374832619    0.8831891296    3.6837970542
H        2.8592187340    0.1773684303    2.2794665834
H        1.8904946817    0.6714646304   -0.0447638751
H        0.4704207145    1.7449426210   -0.1136465803
H        1.8894795502    4.6484020911    3.5170198896
H        0.3713677469    3.6887186858    3.4677639743
H        1.8558896453    3.0191971120    4.2434254763
H        2.2706949622   -4.0258646550    1.2243454708
H        1.4341067118   -3.4586258021    2.5732872308
26   
torsion grid (-60,)
C        1.4228808338   -2.2501174758    0.8831259863
C        0.8480844329   -0.7105082499    2.7715585977
C        0.0883167985   -0.2475532104    0.5088788879
C        1.7449768907    0.5340310755    2.7366714481
C        0.9819703068    0.9895200978    0.4443249233
C        1.6817954818    3.5792257557    3.5415799812
N        0.6335583663   -1.2475317952    1.4295757879
N        1.1459768353    1.5212194031    1.8199923842
N        2.0120957160   -3.1246689849    1.8039325380
O        1.6077932994   -2.3717020513   -0.3261678769
O        1.0610453607    3.9116184387    0.9670277627
O        3.3334402405    2.9530186676    1.5762640111
S        1.8878882918    3.0594585888    1.8252511023
H        1.3112834531   -1.4545829148    3.4180580144
H       -0.1248511400   -0.4418222581    3.1990246518
H       -0.9083477901    0.0374241818    0.8631415447
H        0.0055503311   -0.6956841620   -0.4800699358
H        1.7954308313    0.9517146461    3.7443538437
H        2.7610529681    0.2567807937    2.4215130293
H        1.9521213168    0.7245694813    0.0033982546
H        0.5110439263    1.7624613838   -0.1649650262
H        1.9284192145    4.6425180991    3.5392375515
H        0.6439074033    3.4312134106    3.8408171264
H        2.3786676793    3.0410730552    4.1819539700
H        2.4090320913   -3.9228986352    1.3199155867
H        1.4418906640   -3.3977126790    2.5966356775
26   
torsion grid (-45,)
C        1.4875380993   -2.2311946218    0.9226479356
C        0.7487752122   -0.6952359389    2.7547656569
C        0.1221085726   -0.2715298522    0.4459086405
C        1.6200233115    0.5687458882    2.7686727431
C        0.9904969737    0.9845817165    0.4253976863
C        1.8592201985    3.5096846389    3.5497793562
N        0.6340451973   -1.2498037687    1.4080843030
N        1.0648767337    1.5316606188    1.8023539942
N        2.0400297259   -3.0818738555    1.8879998007
O        1.7562131339   -2.3541372264   -0.2705162872
O        0.7679845737    3.9749385948    1.1534503966
O        3.1290317041    3.0617561153    1.2821778331
S        1.7507827350    3.0989567596    1.7958105531
H        1.1824565527   -1.4229256828    3.4393699976
H       -0.2554098863   -0.4416801868    3.1132552767
H       -0.9006814651   -0.0080519777    0.7359278694
H        0.1114674684   -0.7293223992   -0.5420111711
H        1.5849648322    0.9931745507    3.7732960200
H        2.6617492027    0.3050124572    2.5308798966
H        1.9903998434    0.7431126819    0.0423365698
H        0.5356920934    1.7409254983   -0.2175991117
H        2.0876345766    4.5771171015    3.5585406657
H        0.8987382350    3.3295703485    4.0341666361
H        2.6719854172    2.9529219787    4.0131155072
H        2.4913657492   -3.8708155187    1.4374613166
H        1.4248417165   -3.3681670018    2.6415395805
26   
torsion grid (-30,)
C        1.5528143727   -2.2244224879    0.9516891087
C        0.6635195129   -0.7063405082    2.7300162753
C        0.1734634771   -0.2975818973    0.3868755748
C        1.5093745407    0.5734918122    2.7976935831
C        1.0150025548    0.9766938129    0.4184545871
C        2.0091475222    3.4326033306    3.5445546218
N        0.6466111946   -1.2641784701    1.3801221134
N        0.9988903065    1.5229841991    1.7965256432
N        2.0617419880   -3.0619903348    1.9522414813
O        1.9014228664   -2.3405045231   -0.2212562158
O        0.4987426190    4.0019064959    1.4161984674
O        2.8714525851    3.1934361467    1.0662583791
S        1.6049017047    3.1278002887    1.8124252857
H        1.0636908672   -1.4253336322    3.4436848893
H       -0.3658292213   -0.4683290089    3.0209134229
H       -0.8704497074   -0.0562520546    0.6137256998
H        0.2332468894   -0.7553078008   -0.5993402296
H        1.4001467026    0.9955479465    3.7975609600
H        2.5687550487    0.3230345816    2.6292792303
H        2.0400795325    0.7623726897    0.0909735329
H        0.5812399173    1.7216936635   -0.2525661979
H        2.2939353987    4.4863721830    3.5604114538
H        1.1318424154    3.2759872163    4.1732125284
H        2.8540875512    2.8144809129    3.8443221435
H        2.5588604300   -3.8403438054    1.5324613099
H        1.4049410505   -3.3632184636    2.6637450000
26   
torsion grid (-15,)
C        1.5664881687   -2.1912265776    0.9943414623
C        0.5851556521   -0.6635414712    2.7138939239
C        0.2106331977   -0.2734248149    0.3469933996
C        1.4251501287    0.6183427930    2.8100811420
C        1.0440891301    1.0055201395    0.4089746518
C        2.1987892718    3.4034036095    3.4824742934
N        0.6363634985   -1.2318099204    1.3693837934
N        0.9618343685    1.5589768425    1.7807375775
N        2.0273230566   -3.0200697769    2.0254146382
O        1.9753761558   -2.3141615063   -0.1583372124
O        0.3199601646    4.0486381537    1.7167773915
O        2.6024458486    3.3583043572    0.8708785623
S        1.5006476685    3.1899599590    1.8303610251
H        0.9519265909   -1.3756735027    3.4520161507
H       -0.4570653291   -0.4242458046    2.9525914016
H       -0.8439972441   -0.0342856546    0.5200531922
H        0.3209136019   -0.7380540786   -0.6316619548
H        1.2705355119    1.0476183856    3.8012388313
H        2.4910261552    0.3638460278    2.6935710159
H        2.0837393669    0.7982015235    0.1263670395
H        0.6384739210    1.7405738025   -0.2894046328
H        2.5428177140    4.4394317270    3.4808321244
H        1.4283257634    3.2697534013    4.2419082088
H        3.0438170209    2.7303667328    3.6240759298
H        2.5461857152   -3.8000633594    1.6360095132
H        1.3359388329   -3.3188812502    2.7045065766
26   
torsion grid (0,)
C        1.6011054241   -2.1589005906    1.0190408568
C        0.5055771907   -0.6365377818    2.6716692696
C        0.2727808148   -0.2530798115    0.2854380966
C        1.3244254014    0.6553453553    2.8062250929
C        1.0865259306    1.0358756611    0.3963886126
C        2.3761079588    3.3593694229    3.3895016198
N        0.6413544087   -1.2073694617    1.3338974575
N        0.8996661995    1.5927436367    1.7574153728
N        2.0021654009   -2.9838595795    2.0779871139
O        2.0832180607   -2.2796480177   -0.1053977764
O        0.1907489404    4.0519896219    2.0860450813
O        2.2758937180    3.5341348068    0.7408820567
S        1.3911091797    3.2403257720    1.8761006578
H        0.8394762696   -1.3419588226    3.4314941636
H       -0.5507604065   -0.4082085715    2.8507802985
H       -0.7929251735   -0.0239422243    0.3910975225
H        0.4490265240   -0.7172438788   -0.6837666128
H        1.1218066662    1.0836277176    3.7900062316
H        2.3965394370    0.4108511629    2.7366341638
H        2.1452723191    0.8358339616    0.1875308463
H        0.7268389057    1.7603847569   -0.3352192522
H        2.7485118463    4.3853904229    3.3740265171
H        1.7436161685    3.2064203120    4.2630435374
H        3.2110100395    2.6592021193    3.3564159766
H        2.5490667264   -3.7609043442    1.7225031565
H        1.2714549475   -3.2866966854    2.7127288783
26   
torsion grid (15,)
C        1.6541236520   -2.1469972345    1.0902056306
C        0.4193072883   -0.6360159260    2.6510866704
C        0.3539479256   -0.2664525206    0.2517004007
C        1.2026789193    0.6721902408    2.8282817737
C        1.1375407282    1.0352858730    0.4166472478
C        2.5550439515    3.2838588915    3.2502231626
N        0.6570726521   -1.2117811781    1.3292470144
N        0.8227340331    1.6011162040    1.7524136799
N        1.9897012237   -2.9624162527    2.1786094315
O        2.2220297344   -2.2605483008    0.0056088655
O        0.1523016747    3.9763180907    2.4768670359
O        1.9296048607    3.6703537658    0.6837909104
S        1.3023914739    3.2463366380    1.9401561417
H        0.7154266142   -1.3302007482    3.4364208130
H       -0.6506379720   -0.4273935359    2.7578341420
H       -0.7197987815   -0.0523426308    0.2768950937
H        0.6078252230   -0.7312877296   -0.6997524361
H        0.9332155580    1.1035548741    3.7957165808
H        2.2808885734    0.4492651884    2.8212430835
H        2.2127209055    0.8404832054    0.3040466338
H        0.8375548971    1.7494227269   -0.3492878365
H        2.8955302044    4.3208860256    3.2637677442
H        2.0994191035    3.0290172419    4.2055080920
H        3.3850252524    2.6208414675    3.0023194033
H        2.5742327345   -3.7311714754    1.8678669804
H        1.2196016079   -3.2749418303    2.7598105693
26   
torsion grid (30,)
C        1.6852517084   -2.1235349828    1.1196707588
C        0.3120134435   -0.6546787148    2.6031773940
C        0.4042610517   -0.2660843857    0.2057195132
C        1.0538045022    0.6676630465    2.8387669708
C        1.1446005541    1.0513607961    0.4345727744
C        2.6393545105    3.2124553733    3.0741672069
N        0.6520375221   -1.2138193152    1.2955717539
N        0.7193354050    1.5982696180    1.7473665699
N        1.9616229584   -2.9424453729    2.2214598287
O        2.3317488374   -2.2122011663    0.0773185190
O        0.1123554461    3.8262388730    2.8386678334
O        1.5241107835    3.8033425138    0.7147621925
S        1.1669854542    3.2315040575    2.0153485417
H        0.5695432121   -1.3492798051    3.4015118760
H       -0.7668912507   -0.4699694281    2.6390356497
H       -0.6729501029   -0.0744565360    0.1575198083
H        0.7331261305   -0.7176700444   -0.7289206061
H        0.7190829590    1.0943845537    3.7884728374
H        2.1348510338    0.4682666576    2.8911981523
H        2.2293483352    0.8737036075    0.4024522062
H        0.8876188666    1.7693267644   -0.3428155920
H        2.9309990780    4.2600931255    3.1681890275
H        2.3801649510    2.8082462016    4.0510655998
H        3.4382807634    2.6416986468    2.5971144266
H        2.5834224712   -3.6955225488    1.9469191551
H        1.1604379685   -3.2756717029    2.7463464762
26   
torsion grid (45,)
C        1.7293288268   -2.0594486309    1.1302507448
C        0.2482619019   -0.6401719687    2.5579851171
C        0.4947901281   -0.1903516092    0.1795807369
C        0.9719482770    0.6737471750    2.8773920903
C        1.2136755493    1.1238299585    0.4861600659
C        2.7286687042    3.2289701194    2.9429425378
N        0.6771642704   -1.1635789474    1.2601093328
N        0.7149829297    1.6294737084    1.7863715037
N        1.9390287641   -2.9070742758    2.2244209919
O        2.4463325505   -2.1128910807    0.1322087176
O        0.1600620683    3.6877948963    3.1671335745
O        1.2220604289    3.9444270560    0.8572226407
S        1.1044672259    3.2465794206    2.1384974010
H        0.4519575902   -1.3572050918    3.3519258046
H       -0.8308809496   -0.4569878064    2.5252839116
H       -0.5779072002    0.0002945861    0.0692179956
H        0.8829410329   -0.6187892666   -0.7430830599
H        0.5799376129    1.0888813754    3.8094916870
H        2.0473519921    0.4695737457    2.9927924657
H        2.2995354788    0.9478256769    0.5110898970
H        0.9942726892    1.8651973165   -0.2813046351
H        2.9898312902    4.2762362286    3.1047930278
H        2.6491931025    2.7109312002    3.8977545148
H        3.4618619294    2.7549374410    2.2873313956
H        2.5844624017   -3.6478889806    1.9720764539
H        1.1083832868   -3.2591429557    2.6874914451
26   
torsion grid (60,)
C        1.7819279225   -1.9964845079    1.1392369353
C        0.2023126116   -0.6138638222    2.4940571861
C        0.5976456985   -0.1214291516    0.1450252077
C        0.9235371201    0.6784900944    2.8944831562
C        1.3173009673    1.1761585297    0.5162037968
C        2.8441295302    3.2919990714    2.7543671286
N        0.7105518428   -1.1163290835    1.2152790612
N        0.7732820217    1.6559963643    1.8041345956
N        1.9307596819   -2.8619140516    2.2282313811
O        2.5632904924   -2.0215907909    0.1892810245
O        0.3026869860    3.5795842677    3.3808627518
O        1.0230851638    4.0350328316    0.9685853380
S        1.1180738442    3.2609771046    2.2069340941
H        0.3343760005   -1.3529787702    3.2829684612
H       -0.8684775374   -0.4107361057    2.3884853191
H       -0.4652735016    0.0860105253   -0.0161346290
H        1.0274276724   -0.5374675492   -0.7647474735
H        0.4722596773    1.0926324219    3.7983753396
H        1.9830161127    0.4495871390    3.0895468355
H        2.3985305787    0.9827006197    0.5819751723
H        1.1364091126    1.9402280199   -0.2400061299
H        3.0727309956    4.3329963153    2.9892472950
H        2.9462839149    2.6747274935    3.6472328854
H        3.4863098325    2.9372613089    1.9464587037
H        2.5980455119   -3.5928654280    2.0061369145
H        1.0773853701   -3.2259254769    2.6373201318
26   
torsion grid (75,)
C        1.8122737991   -1.9919009202    1.1027455195
C        0.1583389550   -0.6578562090    2.4195576935
C        0.6796563532   -0.0834468601    0.1143253673
C        0.8630467752    0.6100811229    2.9154977137
C        1.3900816260    1.1937036847    0.5669588158
C        2.8194864404    3.4013823271    2.6108887412
N        0.7366526091   -1.1153352743    1.1529287710
N        0.8056107771    1.6227197955    1.8508754956
N        1.9053847173   -2.8955965694    2.1660727507
O        2.6434176355   -1.9817579361    0.1953897003
O        0.3538441014    3.4082440368    3.5811256383
O        0.7294517107    4.0451046914    1.1315103164
S        1.0444841910    3.2257621527    2.3027044285
H        0.2368253696   -1.4292948378    3.1844095759
H       -0.9027714569   -0.4411755270    2.2577537932
H       -0.3732629128    0.1386122654   -0.0873844400
H        1.1486025869   -0.4703119962   -0.7889481925
H        0.3550832955    1.0037801471    3.7967876920
H        1.9034179904    0.3620512183    3.1802090080
H        2.4668838305    0.9905346480    0.6639695148
H        1.2373227684    1.9887479928   -0.1644082190
H        2.9872836710    4.4403974847    2.8997173829
H        3.1082982811    2.7315574993    3.4224200284
H        3.3629685384    3.1728328461    1.6931476364
H        2.5845426577   -3.6185039323    1.9540423854
H        1.0327326858   -3.2724931345    2.5188221255
26   
torsion grid (90,)
C        1.3923028381   -2.2160278037    1.0323026344
C        0.5723586957   -0.4647019432    2.6173765682
C        0.8076934216    0.0016899079    0.2318334797
C        1.7434808376    0.4816191364    2.9228564593
C        1.9792993065    0.9453062444    0.5113297242
C        2.0791927052    3.9426049856    3.0636022528
N        0.7151526932   -1.0306574644    1.2711654638
N        1.9157026054    1.5125052333    1.8789417850
N        1.3845123419   -3.1414848153    2.0836922353
O        1.9763209452   -2.4558347167   -0.0247452998
O       -0.2024132753    2.6245607629    2.9113111057
O        0.8252380779    3.5308979792    0.7594591806
S        0.9771932176    2.9120649063    2.0799878453
H        0.5456064902   -1.2542827083    3.3677383711
H       -0.3683666769    0.0903326447    2.6696230675
H       -0.1324423857    0.5639158732    0.2225768754
H        0.9387862407   -0.4879040287   -0.7324002303
H        1.5974032104    0.9602109374    3.8936901248
H        2.6783612597   -0.0884847524    2.9621166217
H        2.9215966798    0.3919185097    0.4453576010
H        2.0045225800    1.7646645109   -0.2066234103
H        1.5339178235    4.8608525620    3.2890293088
H        2.3294745866    3.4140259776    3.9841771880
H        2.9712396127    4.1490405129    2.4727741924
H        1.7149722371   -4.0423655892    1.7548053600
H        0.5215588201   -3.2154060212    2.6111904629
26   
torsion grid (105,)
C        2.8240814736    0.0489262803    1.4801244761
C        1.2874311039    1.9996517250    1.1952638634
C        0.7792444756   -0.1666365727    0.1872808259
C        1.5347871257    2.5964293988   -0.1973006126
C        1.0207614424    0.4070200034   -1.2107406992
C       -0.6290358303    3.2889397811   -3.0830049217
N        1.5686029984    0.5592943588    1.1894520356
N        0.7910203098    1.8708735578   -1.2472873933
N        3.6049165635    0.8160984797    2.3536344193
O        3.2482048377   -1.0044234081    1.0040007141
O       -1.1778846095    3.3647375633   -0.4998522723
O       -1.6291410971    1.2077093609   -1.7936717272
S       -0.7990475824    2.3893801664   -1.5321036679
H        1.9147225314    2.5136993182    1.9229482903
H        0.2417026076    2.1547344623    1.4782190615
H       -0.2800951228   -0.0723655865    0.4479177495
H        1.0626278764   -1.2179871997    0.2186042837
H        1.2552664725    3.6506642247   -0.2132974627
H        2.5980774368    2.5161405618   -0.4495192874
H        2.0629582185    0.2433976375   -1.5032705037
H        0.3732248238   -0.0746300878   -1.9430268283
H       -1.6176124741    3.6748173920   -3.3389047708
H        0.0775299220    4.1062080323   -2.9343110407
H       -0.2724090640    2.5940116309   -3.8433895663
H        4.4038945387    0.2768826521    2.6694940059
H        3.1146229704    1.2660725420    3.1187795631
26   
torsion grid (120,)
C        2.8020892799   -0.0240843378    1.4531226675
C        1.2627762015    1.9356347960    1.2665307637
C        0.7776351963   -0.1654609580    0.1179401058
C        1.5321991229    2.6198688738   -0.0803358300
C        1.0413170232    0.4957984787   -1.2375046939
C       -0.6582158256    3.0643707664   -3.1870039457
N        1.5486411994    0.4987951107    1.1755372188
N        0.8094593353    1.9581994938   -1.1847209801
N        3.5632993058    0.6882433995    2.3878408206
O        3.2402004832   -1.0418707468    0.9160594814
O       -1.0329982232    3.6506286332   -0.6337832604
O       -1.6823649709    1.3288961537   -1.4792032565
S       -0.7739948342    2.4832049715   -1.4863958207
H        1.8742758054    2.4042625507    2.0371114578
H        0.2113593672    2.0682100261    1.5429178764
H       -0.2857680632   -0.0877447460    0.3637459016
H        1.0648085829   -1.2158045430    0.0884836039
H        1.2457345560    3.6707280277   -0.0416552035
H        2.5999396832    2.5554169011   -0.3180682664
H        2.0875467019    0.3491796455   -1.5247986885
H        0.4072595677    0.0553093606   -2.0080258881
H       -1.6535485587    3.4067217291   -3.4764364068
H        0.0620277660    3.8817879535   -3.2202895055
H       -0.3395878247    2.2328791561   -3.8167539657
H        4.3604086061    0.1341671174    2.6818659558
H        3.0576746489    1.0863506294    3.1715104970
26   
torsion grid (135,)
C        2.7740855366   -0.0888180500    1.4232253062
C        1.2260243069    1.8684593201    1.3180183365
C        0.7723740765   -0.1655666734    0.0503427929
C        1.5373241851    2.6237010242    0.0192781295
C        1.0709751106    0.5664529075   -1.2618686559
C       -0.6899401933    2.8304119632   -3.2217229350
N        1.5191706421    0.4389051200    1.1594225726
N        0.8535151566    2.0285269068   -1.1472762419
N        3.5165453089    0.5746266824    2.4069113113
O        3.2276045224   -1.0707835903    0.8346992225
O       -0.8838220596    3.8591715372   -0.7805967520
O       -1.6963263472    1.4778225494   -1.1906432758
S       -0.7309508873    2.5582587861   -1.4421844724
H        1.8096569562    2.2975701999    2.1320975384
H        0.1658186303    1.9804804728    1.5697303005
H       -0.2954863585   -0.0978569455    0.2752055083
H        1.0603679824   -1.2129651188   -0.0309306727
H        1.2505284500    3.6722408180    0.0992031254
H        2.6120523255    2.5691054851   -0.1868117341
H        2.1207874156    0.4224146634   -1.5365277161
H        0.4516950312    0.1671844374   -2.0677817923
H       -1.6973347176    3.1303310816   -3.5157692506
H        0.0332485235    3.6178929627   -3.4319326456
H       -0.4129351038    1.8980149748   -3.7149396284
H        4.3144458106    0.0117209029    2.6812637991
H        2.9974982199    0.9273994067    3.2033542468
26   
torsion grid (150,)
C        2.7709166242   -0.0890647929    1.3989091686
C        1.2124774220    1.8616980072    1.3275955659
C        0.8164243165   -0.1115238627   -0.0422843982
C        1.5716160751    2.6738045662    0.0765389081
C        1.1540042442    0.6835063140   -1.3087347411
C       -0.7526405367    2.6551861505   -3.2054084000
N        1.5215739268    0.4425949679    1.1178695602
N        0.9393108270    2.1453046965   -1.1536700779
N        3.4736314391    0.5326517745    2.4371594662
O        3.2514089570   -1.0398478957    0.7811139734
O       -0.7324811583    4.0530263450   -0.9365837721
O       -1.6387028720    1.6773585661   -0.9189811426
S       -0.6617671357    2.6652602696   -1.4063998864
H        1.7647043641    2.2587575448    2.1789730363
H        0.1436508995    1.9555792205    1.5471032829
H       -0.2575505527   -0.0632649085    0.1527585013
H        1.1180348439   -1.1508218050   -0.1669694804
H        1.2870480200    3.7204591191    0.1901097169
H        2.6534893960    2.6258929511   -0.0891922551
H        2.2118778184    0.5500257202   -1.5561002459
H        0.5672917265    0.3138442147   -2.1526289351
H       -1.7755812708    2.9414150305   -3.4555531028
H       -0.0358602241    3.3799874943   -3.5900655875
H       -0.5439680634    1.6526671510   -3.5779915971
H        4.2666266100   -0.0364515786    2.7128611822
H        2.9247257271    0.8454925388    3.2302566725
26   
torsion grid (165,)
C        2.7900363018   -0.1048334819    1.3922251083
C        1.2143235490    1.8331179205    1.3449902719
C        0.8978436686   -0.0770019504   -0.1274402779
C        1.6198628167    2.7031475489    0.1471797127
C        1.2853196161    0.7806230859   -1.3379238414
C       -0.7978033756    2.4510650382   -3.1348869794
N        1.5464790879    0.4270483318    1.0866282897
N        1.0508939832    2.2366501763   -1.1423674068
N        3.4447808445    0.4751170780    2.4842257529
O        3.3048320967   -1.0216746400    0.7509634169
O       -0.5625280139    4.1989541534   -1.1283626862
O       -1.5271755267    1.9007629711   -0.6585018061
S       -0.5597128953    2.7535217103   -1.3731265804
H        1.7303241518    2.1975830632    2.2328814905
H        0.1376586174    1.9074703375    1.5252354294
H       -0.1835526926   -0.0495595378    0.0257691452
H        1.2171686852   -1.1058410053   -0.2898478754
H        1.3274484248    3.7441332720    0.2956627154
H        2.7082283513    2.6708026502    0.0274657616
H        2.3569606515    0.6714547282   -1.5320351981
H        0.7592444492    0.4402078986   -2.2317781511
H       -1.7536793967    2.9211155172   -3.3727689998
H        0.0130518726    2.9225917629   -3.6897264023
H       -0.8562663625    1.3809892327   -3.3260428050
H        4.2328834188   -0.0980953783    2.7653154430
H        2.8620679650    0.7476728858    3.2679868522
26   
torsion grid (180,)
C        3.0353114697   -0.0754934359    1.2680553747
C        0.9900613655    1.3062458655    1.7064790103
C        1.0224707971   -0.3561198177   -0.0632511783
C        0.8691922025    2.4125691309    0.6563626130
C        0.9009370898    0.7494684570   -1.1146833469
C       -1.0365040404    2.3332647757   -2.9647884954
N        1.6670271593    0.1314419860    1.1539356559
N        0.1387198221    1.8781440376   -0.5228295944
N        3.6414560049    0.4957714680    2.3899779728
O        3.6860260660   -0.7120990864    0.4404669498
O        1.1021089298    3.6807804759   -2.1815784975
O       -1.0772527305    4.0801760424   -0.9433737515
S       -0.1586687281    3.1651824395   -1.6262992304
H        1.5354672486    1.6996260220    2.5631626710
H       -0.0098199707    1.0102912139    2.0426796562
H        0.0222099234   -0.7187724233    0.1987911872
H        1.6117946511   -1.1802585089   -0.4623852751
H        0.2967968957    3.2483425310    1.0643410017
H        1.8695163598    2.7671885387    0.3731900117
H        1.8978555887    1.0671517907   -1.4478961115
H        0.3522971477    0.3510827079   -1.9703563527
H       -1.4673031368    3.1430508823   -3.5564471375
H       -0.3348552304    1.7626070275   -3.5705991332
H       -1.8268992925    1.7098466126   -2.5456451948
H        4.5854846969    0.1421296266    2.5000681664
H        3.1127381323    0.4784140015    3.2545928427
