20   
torsion grid (-165,)
C        4.9847394537    1.0751244815    1.6958728772
C        5.6313990749    0.6249586988    0.5586294100
C        3.6107600943    0.7994899210    1.5067911286
C        3.4390184828    0.1604140124    0.2748973532
C        2.1572940210   -0.2357177552   -0.3511552872
C        5.0722198128   -0.3724626023   -1.6401568246
C        0.9632291401   -1.6294972218   -1.9683275061
N        4.7142311862    0.0751748987   -0.2988471571
N        2.2187857041   -1.1312883027   -1.4091740625
O        1.0861155240    0.2450360896    0.0141083566
Cl       2.3882682423    1.1582174112    2.6777934348
H        5.4359526262    1.5481589855    2.5569957345
H        6.6785657962    0.6685862271    0.2904243969
H        6.0642070196    0.0154865722   -1.8765237850
H        4.3593854912    0.0033332290   -2.3748336394
H        5.1123042403   -1.4660316296   -1.7056823145
H        0.4001748455   -2.2380492945   -1.2504475962
H        1.1881628723   -2.2252268015   -2.8564596688
H        0.3381146832   -0.7825599121   -2.2540543704
H        2.9823258072   -1.7948491296   -1.3912310074
20   
torsion grid (-150,)
C        5.0322774640    1.8961761460    0.8526057237
C        5.4551615156    0.5793386225    0.9062304414
C        3.8985409547    1.9150911885    0.0051478518
C        3.6323859688    0.6142324726   -0.4227365487
C        2.5517995953    0.1628502808   -1.3307833062
C        4.8620970310   -1.6118152310   -0.1119444914
C        0.9308548562   -1.5876223337   -1.8967005712
N        4.6155070602   -0.1972790211    0.1486853552
N        2.0789884782   -1.1213140637   -1.1236440680
O        2.1159638891    0.8754673592   -2.2325823065
Cl       2.9746011270    3.3326462962   -0.3628024247
H        5.4803830645    2.7441189929    1.3517952399
H        6.3062713029    0.1410470367    1.4101165800
H        5.9113594211   -1.8240902293    0.1005457815
H        4.6565647611   -1.8481869380   -1.1560649671
H        4.2442841137   -2.2554460747    0.5240030908
H        0.0089770892   -1.0563259215   -1.6308949058
H        0.7988505373   -2.6580770698   -1.7209869238
H        1.1226143261   -1.4191131006   -2.9572755688
H        2.1679155231   -1.4871703965   -0.1841839701
20   
torsion grid (-135,)
C        4.9601238549    1.8750357916    0.8356317719
C        5.4220130137    0.5760961791    0.9376119782
C        3.8798278409    1.8420949600   -0.0849084362
C        3.6926284286    0.5311913335   -0.5075155058
C        2.6395656625    0.0024040415   -1.4119009920
C        5.0989630743   -1.5732706085   -0.2624678272
C        0.9001820464   -1.7019597592   -1.7253989070
N        4.6474602248   -0.2453579828    0.1512606649
N        2.0425092344   -1.1701543103   -0.9872485466
O        2.3269252897    0.5576368058   -2.4618622346
Cl       2.8953080654    3.2041762513   -0.5085369237
H        5.3321951095    2.7423341840    1.3635390157
H        6.2647901808    0.1763196453    1.4860351103
H        5.5744218132   -2.0643678992    0.5898258247
H        5.8211324682   -1.4991423218   -1.0826099419
H        4.2525370768   -2.1731443708   -0.5937510020
H        0.0094877928   -1.0712447289   -1.6179935971
H        0.6800676740   -2.7083827139   -1.3610544547
H        1.1530313370   -1.7510717172   -2.7854752397
H        2.0652298707   -1.3414136721    0.0109087395
20   
torsion grid (-120,)
C        4.9271803087    1.8625656248    0.8908029201
C        5.4512250510    0.5831713472    0.9306227855
C        3.8464280592    1.8211173964   -0.0303665062
C        3.7295622091    0.5290506529   -0.5214355176
C        2.7067254685   -0.0319832272   -1.4517475915
C        5.1520475762   -1.5558627950   -0.3252971698
C        0.8539045256   -1.6372425664   -1.6696149822
N        4.7137231919   -0.2308665548    0.1016013207
N        1.9736538334   -1.0717104260   -0.9238293725
O        2.5347621105    0.3902392523   -2.5916580324
Cl       2.7928182932    3.1472074935   -0.4089481909
H        5.2608922851    2.7208523198    1.4576139866
H        6.3062059548    0.1938760730    1.4672035031
H        5.6594785036   -2.0461990918    0.5085156613
H        5.8404003661   -1.4856166793   -1.1741340828
H        4.2902400376   -2.1566411910   -0.6174108591
H       -0.0082274515   -0.9599690327   -1.6905864921
H        0.5610058549   -2.5844347953   -1.2102693878
H        1.1676993249   -1.8177001182   -2.6988486869
H        1.9548260734   -1.1423785552    0.0860508715
20   
torsion grid (-105,)
C        4.8901128209    1.8553984169    0.9474050111
C        5.5123826380    0.6199339337    0.9113297147
C        3.7576084373    1.7540640767    0.0939308018
C        3.7076661632    0.4717429359   -0.4251995035
C        2.7647925866   -0.1360752157   -1.4212620628
C        5.2270395648   -1.5351820786   -0.3508673566
C        0.7812361542   -1.5782132612   -1.6733612500
N        4.7889450763   -0.2192959470    0.0946684219
N        1.8385169442   -0.9795388633   -0.8654666984
O        2.8491677761    0.0653799926   -2.6296133526
Cl       2.5895770536    3.0048713758   -0.2133641297
H        5.1953185608    2.7209116247    1.5191862422
H        6.4134353132    0.2744331643    1.3999415871
H        5.8981645090   -1.9578287784    0.3993821169
H        5.7513035875   -1.4704069726   -1.3096789782
H        4.3650920800   -2.1962449722   -0.4631078433
H       -0.0017566937   -0.8520850874   -1.9215796261
H        0.3405033098   -2.4134255068   -1.1240611019
H        1.2126627664   -1.9460902890   -2.6055851458
H        1.7013471360   -0.9061886205    0.1348717397
20   
torsion grid (-90,)
C        4.8560811011    1.8530114890    0.9656719120
C        5.5984721395    0.6872499793    0.8704503783
C        3.6687965730    1.6220700344    0.2225967004
C        3.6944089088    0.3274818409   -0.2740987719
C        2.8628619245   -0.3167627320   -1.3440551448
C        5.4022468161   -1.5165315665   -0.3322285763
C        0.7202606887   -1.4500599078   -1.8058648582
N        4.9012444710   -0.2244510591    0.1158078079
N        1.7154179104   -0.9041467532   -0.8895968617
O        3.2464945899   -0.3908978769   -2.5105318692
Cl       2.3681302342    2.7547215505   -0.0182709016
H        5.1215451456    2.7518270728    1.5047951727
H        6.5580269165    0.4323931756    1.2997620015
H        6.2925561885   -1.7680099388    0.2464948354
H        5.6529306077   -1.4830655900   -1.3959414730
H        4.6475417975   -2.2908087651   -0.1710526016
H        0.0826862147   -0.6651531847   -2.2300131565
H        0.0975395152   -2.1718317202   -1.2719832989
H        1.2372607329   -1.9534151176   -2.6237400517
H        1.4263783280   -0.6581885353    0.0493086426
20   
torsion grid (-75,)
C        4.8311723964    1.8024813890    0.8866111169
C        5.6270679605    0.6761915091    0.7432086754
C        3.6183118077    1.5073574540    0.2160981026
C        3.6819155693    0.2130221701   -0.2890818425
C        2.8418719464   -0.4496393043   -1.3326491110
C        5.4829141985   -1.5455712613   -0.4243611969
C        0.5712680668   -1.2788510666   -1.8405242404
N        4.9420973062   -0.2676652682    0.0227787241
N        1.5885368948   -0.7990897254   -0.9131323727
O        3.2923571723   -0.7368173260   -2.4431125812
Cl       2.2534913681    2.5788002010    0.0538758282
H        5.0806555008    2.7146097486    1.4106282732
H        6.6183572143    0.4702453696    1.1240492272
H        6.4213273510   -1.7289783622    0.1017471566
H        5.6560538116   -1.5298601593   -1.5026017278
H        4.7846267891   -2.3536090929   -0.1920107550
H        0.0021083902   -0.4529267860   -2.2844252422
H       -0.1158032252   -1.9467414839   -1.3144092986
H        1.0676857846   -1.8288215604   -2.6403806324
H        1.2879935925   -0.4176659251   -0.0244049121
20   
torsion grid (-60,)
C        4.7793405416    1.7789003900    0.8862854136
C        5.6246979134    0.6943522942    0.7044572929
C        3.5691727400    1.4381234426    0.2367023053
C        3.6855720727    0.1580946340   -0.3030830619
C        2.8401344513   -0.5488385679   -1.3043684415
C        5.5663589570   -1.5250983581   -0.4639732968
C        0.5249858152   -1.1875735170   -1.8751847021
N        4.9745072672   -0.2656283858   -0.0235556727
N        1.5330803084   -0.7127505105   -0.9361415905
O        3.3152389113   -1.0175192505   -2.3427033750
Cl       2.1597874194    2.4597534634    0.1330868250
H        4.9976310519    2.6939745044    1.4189390330
H        6.6330134016    0.5308283761    1.0602832463
H        6.5199851129   -1.6540757781    0.0511003043
H        5.7188501123   -1.5176005574   -1.5443619856
H        4.9103703966   -2.3609450448   -0.2102623998
H        0.0615129401   -0.3615467083   -2.4288276805
H       -0.2503708891   -1.7347893260   -1.3323796751
H        1.0071811651   -1.8574162066   -2.5873568801
H        1.2209350921   -0.2026120320   -0.1190998934
20   
torsion grid (-45,)
C        4.7434278508    1.7455655436    0.9058848410
C        5.6202173488    0.6950660537    0.6786915804
C        3.5312319828    1.3802462622    0.2770714090
C        3.6793902616    0.1204590639   -0.3076511789
C        2.8161687086   -0.6377528438   -1.2490518278
C        5.6178097565   -1.5074813820   -0.5072833293
C        0.4910082249   -1.1662582219   -1.8763767637
N        4.9877861756   -0.2672780957   -0.0593518228
N        1.4822161971   -0.6415616021   -0.9467542713
O        3.2911372389   -1.2717850268   -2.1980507471
Cl       2.0970123175    2.3735985345    0.2448301021
H        4.9440576115    2.6562049890    1.4528384850
H        6.6428861444    0.5600522193    1.0041182557
H        6.5739061593   -1.6056128348    0.0104643365
H        5.7712380423   -1.4920169401   -1.5867786982
H        4.9874645628   -2.3638141008   -0.2611931981
H        0.1195108948   -0.3908724658   -2.5582000995
H       -0.3504841106   -1.5822822530   -1.3157689242
H        0.9558748998   -1.9555657308   -2.4671813599
H        1.1657897307   -0.0135888474   -0.2188787542
20   
torsion grid (-30,)
C        4.6955774302    1.7253977005    1.0136794719
C        5.6017356971    0.7282294149    0.6850471098
C        3.4695276075    1.3392548566    0.4294944857
C        3.6399853293    0.1222895143   -0.2397099421
C        2.7498553162   -0.6752270148   -1.1183574447
C        5.6412610331   -1.4198018194   -0.5838734013
C        0.4400860205   -1.1827029911   -1.7750865728
N        4.9755143708   -0.2217063333   -0.0720107735
N        1.4096991703   -0.5704836515   -0.8765413350
O        3.2028847626   -1.4280837127   -1.9903505651
Cl       2.0040340347    2.2820407856    0.5394922665
H        4.8864260380    2.6148297235    1.5977563789
H        6.6467323049    0.6268886399    0.9448124449
H        6.6355575692   -1.4637328838   -0.1348938699
H        5.7179473995   -1.3833634863   -1.6705048625
H        5.0804807717   -2.3145661972   -0.3105042431
H        0.3439192016   -0.6258429222   -2.7153409603
H       -0.5310174670   -1.2141820395   -1.2759143077
H        0.7566842313   -2.1997331866   -2.0118443093
H        1.0887111541    0.1407226246   -0.2331807844
20   
torsion grid (-15,)
C        4.6888166939    1.7201012822    1.0411899451
C        5.6180172098    0.7669438556    0.6527122761
C        3.4648866599    1.3213095101    0.4640304426
C        3.6578354662    0.1405598179   -0.2651010607
C        2.7648446047   -0.6882413028   -1.1097700046
C        5.7109314251   -1.3238486347   -0.6952580709
C        0.4849991160   -1.1673784054   -1.8596135356
N        5.0070987731   -0.1709999750   -0.1299934349
N        1.4247706347   -0.4616465098   -0.9993410873
O        3.2105070258   -1.5631359865   -1.8657184891
Cl       1.9795606153    2.2197806684    0.6578104011
H        4.8638914075    2.5896585575    1.6591442956
H        6.6716550593    0.6908409917    0.8844894073
H        6.7340362311   -1.3012845449   -0.3141402144
H        5.7139996264   -1.2784580943   -1.7839391148
H        5.2279336626   -2.2539730570   -0.3946956071
H        0.6431819215   -0.9190185431   -2.9149146208
H       -0.5292532272   -0.8840428135   -1.5710135090
H        0.6023208999   -2.2481585954   -1.7455796621
H        1.0935403036    0.3071156251   -0.4333544683
20   
torsion grid (0,)
C        4.5847135927    1.7049602575    1.1603128366
C        5.4771000227    0.7475004878    0.7027259150
C        3.3306851443    1.3498640923    0.6215900149
C        3.4681463333    0.1896796289   -0.1530835481
C        2.5151500834   -0.6259302312   -0.9431095050
C        5.4784097151   -1.2952749280   -0.7158821336
C        0.2185674604   -0.9668897181   -1.7146561651
N        4.8148625303   -0.1553650056   -0.0790559002
N        1.2152682868   -0.2175225101   -0.9630397740
O        2.8790679025   -1.6367977400   -1.5615361250
Cl       1.8741488589    2.2670490365    0.9201901680
H        4.8028182030    2.5498369881    1.7984871965
H        6.5391613150    0.6483469187    0.8811017154
H        6.5338495082   -1.2536608819   -0.4384514820
H        5.3765441233   -1.2446175609   -1.7997729225
H        5.0414642238   -2.2344253937   -0.3771774284
H        0.4814814687   -1.0112549354   -2.7760085452
H       -0.7461706020   -0.4677000431   -1.6037612596
H        0.1378820172   -1.9934187610   -1.3436293317
H        0.9363750371    0.6071848376   -0.4507821842
20   
torsion grid (15,)
C        4.6463495242    1.5913051742    1.2341933837
C        5.5947881189    0.6906014491    0.7737535196
C        3.4195686538    1.1780899100    0.6732792987
C        3.6293704102    0.0391515146   -0.1150814487
C        2.7208096417   -0.8449683894   -0.8835594207
C        5.7169508053   -1.3278316563   -0.6782733822
C        0.4826199459   -1.2172841556   -1.7992312408
N        4.9900108313   -0.2370617489   -0.0259038754
N        1.4622228608   -0.3786809319   -1.1223349629
O        3.0910472866   -1.9482649798   -1.3093581381
Cl       1.9072944397    1.9995184015    0.9718887600
H        4.8107395995    2.4361624841    1.8882909187
H        6.6599997619    0.6510968568    0.9566053072
H        6.7791301253   -1.1835882781   -0.4697080854
H        5.5489135136   -1.3112897778   -1.7552700504
H        5.3868054886   -2.2940122717   -0.2973147551
H        0.8548110379   -1.5241326309   -2.7803461261
H       -0.4362742353   -0.6416892502   -1.9277836627
H        0.2642261244   -2.1222068043   -1.2218137485
H        1.1655760649    0.4953297083   -0.7112412600
20   
torsion grid (30,)
C        4.6418911057    1.5669040669    1.2394259462
C        5.5956057929    0.7073558346    0.7149661649
C        3.4088719450    1.1569498731    0.6870047268
C        3.6233069813    0.0654789752   -0.1619056201
C        2.6995986474   -0.8348684814   -0.8944633553
C        5.7045710961   -1.2445587587   -0.8354184871
C        0.4636722108   -1.1271228154   -1.8629660902
N        4.9871955133   -0.1945082492   -0.1121176329
N        1.5075637061   -0.2927722503   -1.2827462606
O        3.0144034502   -1.9982406555   -1.1768525719
Cl       1.8813447799    1.9177914370    1.0561789637
H        4.8067901701    2.3831086322    1.9288283167
H        6.6664359009    0.6839831144    0.8651572938
H        6.7737670571   -1.0674660014   -0.7023019435
H        5.4617844329   -1.2105017072   -1.8983015069
H        5.4337381254   -2.2290414072   -0.4541738344
H        0.8992087360   -1.7781346599   -2.6227054997
H       -0.2846514492   -0.4811732759   -2.3276402028
H       -0.0231741782   -1.7580112942   -1.1090792960
H        1.2532237657    0.6192950210   -0.9274686089
20   
torsion grid (45,)
C        4.6475354685    1.4701466492    1.3055361874
C        5.6145003510    0.6874936760    0.6920482301
C        3.4095444975    1.0244986746    0.7888749119
C        3.6368838217   -0.0032782317   -0.1292697851
C        2.7112455679   -0.9509904618   -0.8007738372
C        5.7214136372   -1.2024362527   -0.9446307519
C        0.4757469394   -1.2188641571   -1.8077223495
N        5.0092856825   -0.2010465670   -0.1535956699
N        1.5683755235   -0.3955420102   -1.3069995159
O        2.9971277034   -2.1450244759   -0.9441020721
Cl       1.8567376321    1.6698189536    1.2546995245
H        4.8065490928    2.2592032805    2.0272292583
H        6.6916196613    0.7133276682    0.7870622629
H        6.7882562255   -0.9768204059   -0.8925576664
H        5.3976838321   -1.1641591453   -1.9862913472
H        5.5267369403   -2.2042057871   -0.5601908532
H        0.8947541540   -2.1396074898   -2.2137684003
H       -0.0514671987   -0.6813475843   -2.6004896773
H       -0.2369737890   -1.4783737990   -1.0147590357
H        1.3622808334    0.5618971957   -1.0517107342
20   
torsion grid (60,)
C        4.6675536497    1.4550462018    1.3504321006
C        5.6283709906    0.7070522774    0.6861001777
C        3.4193232479    1.0009119339    0.8624374288
C        3.6365891758    0.0133391869   -0.0972633111
C        2.6965618423   -0.9732149681   -0.6974119968
C        5.6923228979   -1.1589725471   -0.9898485001
C        0.5118539387   -1.2335744104   -1.8158228514
N        5.0083331583   -0.1680366990   -0.1647650662
N        1.6327222976   -0.4227243830   -1.3577803876
O        2.9186416212   -2.1869273521   -0.6648869504
Cl       1.8614084571    1.5882374122    1.3809520840
H        4.8370169258    2.2291861530    2.0857661376
H        6.7075842445    0.7520569947    0.7437414563
H        6.7625161146   -0.9459498954   -0.9645488604
H        5.3428813829   -1.0976738126   -2.0230381060
H        5.4988694312   -2.1655879954   -0.6159016404
H        0.8861382706   -2.2251030375   -2.0712059166
H        0.0691146449   -0.7746965769   -2.7038327266
H       -0.2594000758   -1.3383712047   -1.0426131672
H        1.4836787106    0.5713483589   -1.2359434786
20   
torsion grid (75,)
C        4.7097355718    1.4533971586    1.3877978591
C        5.6453252463    0.7358941393    0.6581432112
C        3.4426252806    0.9972439051    0.9472256041
C        3.6242787993    0.0467663747   -0.0518346488
C        2.6670046544   -0.9625154652   -0.5985290065
C        5.6298548405   -1.1126971642   -1.0456652021
C        0.5846301459   -1.2447849397   -1.8960549380
N        4.9915870650   -0.1190127855   -0.1908840838
N        1.7093485653   -0.4453982083   -1.4258050280
O        2.8047857840   -2.1688798639   -0.3882936953
Cl       1.8974225436    1.5399608081    1.5429239359
H        4.9062204778    2.2120401975    2.1325581879
H        6.7255773386    0.7918056593    0.6639977104
H        6.7010186212   -0.9063564279   -1.0784367340
H        5.2279756105   -1.0526599829   -2.0602684586
H        5.4549265926   -2.1183671209   -0.6572527806
H        0.9196558260   -2.2760196168   -2.0101658492
H        0.2471170631   -0.8647153091   -2.8637782266
H       -0.2535471748   -1.2254076185   -1.1887839993
H        1.6212921704    0.5634301691   -1.4382602561
20   
torsion grid (90,)
C        4.7593186668    1.5185122662    1.4116698210
C        5.6620348317    0.8372519803    0.6115889572
C        3.4756273538    1.0240588860    1.0611988763
C        3.6160022190    0.0903231679    0.0454349860
C        2.6465657086   -0.9306186368   -0.4734822884
C        5.5672775716   -1.0217536101   -1.0844776358
C        0.7562771406   -1.2952998152   -2.0170497197
N        4.9717254355   -0.0282497074   -0.2016103895
N        1.8491901099   -0.4854060427   -1.4903081528
O        2.6528863705   -2.0950744070   -0.0767733896
Cl       1.9575822294    1.5135617764    1.7601827623
H        4.9849747735    2.2795208384    2.1457937937
H        6.7387188990    0.9181220799    0.5467220919
H        6.6258475167   -0.7892226554   -1.2116160274
H        5.0815285850   -0.9967193740   -2.0635105792
H        5.4596422971   -2.0244021026   -0.6619099952
H        1.0852402913   -2.3338185214   -2.0702918635
H        0.4994812093   -0.9445796598   -3.0194579657
H       -0.1327880833   -1.2459091026   -1.3770500053
H        1.8241156404    0.5164351105   -1.6360153727
20   
torsion grid (105,)
C        4.7835592059    1.4952506944    1.4302574774
C        5.6081555427    0.8671865032    0.5134883449
C        3.4888010300    0.9375430793    1.2463368894
C        3.5494450188    0.0046502347    0.2253783098
C        2.4920186521   -0.9112131211   -0.3164903751
C        5.4015685749   -1.0078416683   -1.1480381478
C        0.8787933438   -1.2358087924   -2.1522104166
N        4.8587908482   -0.0212009717   -0.2239600461
N        1.9851708198   -0.5182734721   -1.5276986979
O        2.1496321647   -1.9450926312    0.2506801403
Cl       2.0480491218    1.3818979248    2.1123766603
H        5.0633748591    2.2647707910    2.1364719085
H        6.6682131637    0.9810745620    0.3309640756
H        6.3468260102   -0.6359546044   -1.5481625098
H        4.7069904279   -1.1640059061   -1.9761262287
H        5.5734083965   -1.9644545692   -0.6443206156
H        1.0639092109   -2.3083912918   -2.0760372516
H        0.8179485058   -0.9528919596   -3.2056863114
H       -0.0766742059   -1.0175640559   -1.6608814257
H        2.1558112188    0.4415584349   -1.8006001217
20   
torsion grid (120,)
C        4.7986497418    1.4387950267    1.4647132005
C        5.5652804621    0.8843572982    0.4557903755
C        3.5182227008    0.8304816182    1.3711703279
C        3.5275934503   -0.0658857008    0.3125357703
C        2.4069726670   -0.8875617256   -0.2310459777
C        5.3444359891   -0.9760333024   -1.1972525069
C        0.9598748868   -1.2704765938   -2.1845960408
N        4.7937500265   -0.0028456028   -0.2593630863
N        2.1115888107   -0.6350327830   -1.5524510149
O        1.8023564450   -1.7214109905    0.4370699644
Cl       2.1454492200    1.2130008842    2.3616748490
H        5.1047819228    2.1950079993    2.1744449931
H        6.6068421489    1.0354811126    0.2052491496
H        6.1784793034   -0.5177269273   -1.7334262078
H        4.5810021025   -1.2720295543   -1.9173449119
H        5.7014936713   -1.8677067613   -0.6712147668
H        0.9663703730   -2.3351002627   -1.9460856164
H        1.0313275001   -1.1427691780   -3.2674383285
H        0.0124687539   -0.8479893034   -1.8291556670
H        2.4249486951    0.2539774699   -1.9221483911
20   
torsion grid (135,)
C        4.8095122841    1.3861847259    1.5027477067
C        5.5419992313    0.8945478702    0.4384503655
C        3.5277565691    0.7818657374    1.4164751416
C        3.4973230268   -0.0442543916    0.2990171023
C        2.3500407240   -0.8238534937   -0.2324401585
C        5.3186268047   -0.9139739285   -1.2478452297
C        0.9987241513   -1.3550571676   -2.2124306827
N        4.7509779237    0.0514088781   -0.3075295634
N        2.1761417046   -0.7439815493   -1.6017886775
O        1.6152818973   -1.4961345844    0.4863120100
Cl       2.1972619079    1.1220909911    2.4738365624
H        5.1371936512    2.1019669614    2.2441064738
H        6.5781847793    1.0550786614    0.1712196999
H        6.1289404052   -0.4322264689   -1.8000696427
H        4.5569612325   -1.2484767339   -1.9507027034
H        5.7152479766   -1.7856963430   -0.7163873338
H        0.9115587849   -2.3853410033   -1.8645463404
H        1.1201657121   -1.3510959534   -3.2983962273
H        0.0748536352   -0.8277213664   -1.9458713102
H        2.5453736906    0.0879770766   -2.0463996447
20   
torsion grid (150,)
C        4.8770963845    1.3932595394    1.5388670200
C        5.5622200450    0.8600145062    0.4608954380
C        3.5578326523    0.8858704911    1.4614030330
C        3.4507134156    0.0761752447    0.3304404548
C        2.2605243873   -0.6720002880   -0.1382225269
C        5.1546448573   -0.7402317573   -1.3999254736
C        0.9497688668   -1.4740822459   -2.0488410567
N        4.7106120691    0.0738491193   -0.2730917741
N        2.1571556412   -0.8570503360   -1.5059236484
O        1.4249732672   -1.1251171015    0.6412366926
Cl       2.2890941834    1.2834408534    2.5707972159
H        5.2702084711    2.0591837512    2.2945147678
H        6.6003047412    0.9642885581    0.1747211174
H        6.2376237998   -0.8587276214   -1.3345064278
H        4.9165614419   -0.2689266521   -2.3599101224
H        4.6872533562   -1.7244655496   -1.3662863609
H        0.7601689320   -2.4106548725   -1.5226569356
H        1.1073537973   -1.6834171040   -3.1097461444
H        0.0674069583   -0.8339003623   -1.9288756939
H        2.6103107883   -0.1648381561   -2.0888789590
20   
torsion grid (165,)
C        4.9074922070    1.3261208475    1.5821143504
C        5.5787681784    0.8173858211    0.4845396579
C        3.5664229764    0.8942518379    1.4623083229
C        3.4283273251    0.1556753839    0.2828766365
C        2.2128181462   -0.5433498361   -0.1919221919
C        5.1369626971   -0.6477125516   -1.4647697219
C        0.9573342965   -1.5290300549   -2.0451326251
N        4.7016597084    0.1146010034   -0.2998937373
N        2.1895930400   -0.9430458609   -1.5203485587
O        1.2819811709   -0.8062525993    0.5673046195
Cl       2.3209134397    1.3017607409    2.5924067706
H        5.3229222684    1.9298411249    2.3769844484
H        6.6227534651    0.8928824913    0.2110597535
H        6.2237487310   -0.7371075691   -1.4282834400
H        4.8700850669   -0.1447040534   -2.4015941574
H        4.6981955609   -1.6459615335   -1.4577573883
H        0.6691327878   -2.3755503729   -1.4204946130
H        1.1437964908   -1.8812265670   -3.0626809380
H        0.1256887000   -0.8142012908   -2.0501274283
H        2.7124024552   -0.3709047628   -2.1706334408
20   
torsion grid (180,)
C        4.9211733112    1.2386385675    1.6494091442
C        5.5896029231    0.7672157627    0.5348711471
C        3.5660934472    0.8726907558    1.4841490063
C        3.4156302789    0.2047805949    0.2618082343
C        2.1777190707   -0.4348293540   -0.2403305559
C        5.1331811068   -0.5351112348   -1.5144420044
C        0.9621809353   -1.5958288880   -2.0114359803
N        4.7003738078    0.1426485492   -0.2997322483
N        2.2139027214   -1.0548709064   -1.4825330155
O        1.1630271029   -0.4845064468    0.4532676131
Cl       2.3355477508    1.2631219354    2.6351944629
H        5.3462881887    1.7779053939    2.4844067184
H        6.6383333154    0.8264935165    0.2760273318
H        6.2235909727   -0.5254139672   -1.5390198358
H        4.7775043391   -0.0189857512   -2.4142132664
H        4.7920157964   -1.5721359891   -1.5268447646
H        0.5408860293   -2.2966103307   -1.2896880338
H        1.1792001343   -2.1265686745   -2.9418079094
H        0.2156418143   -0.8146206109   -2.1988626425
H        2.8344519453   -0.6578977894   -2.1737259894
