
  -OEChem-12102412483D

 22 23  0     0  0  0  0  0  0999 V2000
    1.3345    1.1757    0.8436 C   0  0  0  0  0  0  0  0  0  0  0  0
    0.5266    1.0883    2.0220 C   0  0  0  0  0  0  0  0  0  0  0  0
    0.9500    2.2190    0.0550 C   0  0  0  0  0  0  0  0  0  0  0  0
   -0.4498    2.0506    2.0985 C   0  0  0  0  0  0  0  0  0  0  0  0
   -1.3021   -3.7472    0.4973 C   0  0  0  0  0  0  0  0  0  0  0  0
   -0.8542   -1.9713    2.0444 C   0  0  0  0  0  0  0  0  0  0  0  0
   -1.6901   -4.9862   -0.2462 C   0  0  0  0  0  0  0  0  0  0  0  0
   -0.8458   -2.6678   -0.0674 N   0  0  0  0  0  0  0  0  0  0  0  0
   -0.5981   -1.6435    0.8105 N   0  0  0  0  0  0  0  0  0  0  0  0
   -0.6586   -1.0946    3.1088 N   0  0  0  0  0  0  0  0  0  0  0  0
    0.7358    0.3462    4.5837 O   0  0  0  0  0  0  0  0  0  0  0  0
    1.9332   -0.9751    2.7595 O   0  0  0  0  0  0  0  0  0  0  0  0
   -0.4053    3.1073    0.7170 S   0  0  0  0  0  0  0  0  0  0  0  0
   -1.4396   -3.6117    2.2524 S   0  0  0  0  0  0  0  0  0  0  0  0
    0.8004   -0.1850    3.2260 S   0  0  0  0  0  0  0  0  0  0  0  0
    1.6385    2.6953   -1.4545 Cl  0  0  0  0  0  0  0  0  0  0  0  0
   -1.6439    2.2693    3.3139 Cl  0  0  0  0  0  0  0  0  0  0  0  0
    2.1316    0.4801    0.6135 H   0  0  0  0  0  0  0  0  0  0  0  0
   -1.1122   -5.8516    0.0926 H   0  0  0  0  0  0  0  0  0  0  0  0
   -2.7521   -5.2138   -0.1093 H   0  0  0  0  0  0  0  0  0  0  0  0
   -1.4971   -4.8248   -1.3084 H   0  0  0  0  0  0  0  0  0  0  0  0
   -0.9672   -1.3839    4.0333 H   0  0  0  0  0  0  0  0  0  0  0  0
  1  2  1  0  0  0  0
  1  3  2  0  0  0  0
  1 18  1  0  0  0  0
  2  4  2  0  0  0  0
  2 15  1  0  0  0  0
  3 13  1  0  0  0  0
  3 16  1  0  0  0  0
  4 13  1  0  0  0  0
  4 17  1  0  0  0  0
  5  7  1  0  0  0  0
  5  8  2  0  0  0  0
  5 14  1  0  0  0  0
  6  9  2  0  0  0  0
  6 10  1  0  0  0  0
  6 14  1  0  0  0  0
  7 19  1  0  0  0  0
  7 20  1  0  0  0  0
  7 21  1  0  0  0  0
  8  9  1  0  0  0  0
 10 15  1  0  0  0  0
 10 22  1  0  0  0  0
 11 15  2  0  0  0  0
 12 15  2  0  0  0  0
M  END
$$$$
