22
0 1 C7Cl2H5N3O2S3
C                     1.693690613091     0.778780448751     2.090067543011
C                     0.359566130164     1.169171696488     1.748275274122
C                     2.001939026526     1.134116288666     3.369463254077
C                    -0.313373208965     1.797335462660     2.766926058522
C                    -1.051205385393    -3.988607760912     1.066853838152
C                    -1.271285895684    -1.614161480284     0.819341643819
C                    -1.148871199245    -5.481548410879     1.070203212389
N                    -0.181069275272    -3.310705215807     1.756201618473
N                    -0.308217641781    -1.950905329790     1.628391007853
N                    -1.572024649487    -0.286885248977     0.523528725497
O                     0.737892417962     0.163219000809    -0.623532819982
O                    -1.045647278397     1.970990801166    -0.382133701954
S                     0.679230991575     1.935871532238     4.189159954637
S                    -2.137360538962    -2.969107117911     0.118730532947
S                    -0.311166614081     0.824432296835     0.142901479935
Cl                    3.491157205863     0.861259109494     4.198343571124
Cl                   -1.929765874998     2.378868095984     2.783059618613
H                     2.352646978896     0.250055171294     1.413092957771
H                    -2.123390662775    -5.813947969491     1.441945456165
H                    -1.012418055837    -5.891772426707     0.064747445861
H                    -0.367848806573    -5.876103330746     1.722800312776
H                    -2.392964662487    -0.094570084835    -0.044515905700
