49
0 1 C16H25N5O2S
C                     1.585140502449     6.129685304104    -4.599647844681
C                     0.047866957429     4.524862774985    -3.650493887483
C                    -2.922221731290    -0.848623336681    -0.152147496998
C                    -2.905296829015     2.228117939037    -3.801714588806
C                    -2.910537382060    -0.049112550623    -2.593256712696
C                    -2.000546232108     3.345744414931    -4.326612248121
C                    -2.992252037914    -1.576365220266     2.183599784334
C                    -0.817570657031    -0.981757194869     1.237888209559
C                    -2.385836544916    -2.874778168547     2.711808653626
C                    -0.247697930242    -2.291483914872     1.782861370551
C                    -0.982183589990     2.987594712240    -2.047488949788
C                    -2.083957742314    -0.369381526030    -1.346845934822
C                    -2.078754655016     1.034641614814    -3.312879816637
C                    -1.034827996319     1.473772449077    -2.244753106206
C                     2.371488942036     7.108244136036    -5.414804321193
C                    -0.378365129406    -3.912804972312     3.566844766126
N                     1.892866649729     5.761630472967    -3.394672822468
N                     1.028288662480     4.853229077191    -2.837073704901
N                    -0.939401020119     3.636042502368    -3.359086374732
N                    -2.254374336370    -1.120147804215     1.005766039002
N                    -0.958734319007    -2.705623371091     2.991212675662
O                    -4.142225444496    -0.996112550195    -0.269953012306
O                    -1.429043650093     0.864018885067    -1.010467672683
S                     0.115907822329     5.351450511142    -5.213057927965
H                    -3.529424444182     2.603739766157    -2.983854747012
H                    -3.588676035453     1.923836481394    -4.600905868248
H                    -3.083576181489    -0.934207309841    -3.209369102907
H                    -3.885042515471     0.332475823632    -2.282174444170
H                    -1.544636241557     3.032064939364    -5.276342839143
H                    -2.590055158821     4.250562963484    -4.531318154860
H                    -4.034325766731    -1.717097729817     1.899489360730
H                    -2.935403757863    -0.803096273875     2.960599049052
H                    -0.653324179291    -0.180898996630     1.969775794415
H                    -0.307802137127    -0.693239243693     0.322203372117
H                    -2.894592346642    -3.156516407135     3.640093269247
H                    -2.562226988753    -3.681944264973     1.974090065086
H                    -0.303718624762    -3.066902654265     0.992299542636
H                     0.809715746312    -2.144511114815     2.029126860418
H                    -1.862635893414     3.313047676940    -1.480620081559
H                    -0.095646769955     3.286565379147    -1.491680377397
H                    -1.323950643585    -1.132767061408    -1.583899312010
H                    -1.547753359917     0.606414535187    -4.169912615295
H                    -0.036321744763     1.109947913480    -2.525744030153
H                     2.741964367321     6.654079117922    -6.340136667739
H                     1.767732432228     7.980561128320    -5.687285678710
H                     3.224688677320     7.442829064234    -4.821008254724
H                    -0.901524404542    -4.167001780796     4.494212751566
H                     0.674784886985    -3.737118027243     3.808798631207
H                    -0.435541631622    -4.785598906725     2.888907448786
