16   
torsion grid (-165,)
C       -0.7057880107   -2.8028625624    1.8226393040
C        0.2684996843   -1.7446420257    1.3129593230
N       -0.3969747804   -0.9487479259    0.2490368868
N       -0.7411695485    1.4847246516   -0.8248537434
O        1.1710186916    0.9844637739    0.7723504838
O        1.1708166688    0.0021708207   -1.5950925997
O       -1.6028454164    0.8508255293   -1.7736951534
S        0.4883699223    0.3621550408   -0.3555796414
H       -0.2378698953   -3.3823906403    2.6244877937
H       -1.6155373519   -2.3374394880    2.2122171646
H       -0.9899534579   -3.5027440958    1.0287154543
H        0.5403205039   -1.0529630849    2.1112995474
H        1.1903306942   -2.2142630292    0.9466298662
H       -0.6671856252   -1.5307941617   -0.5445090760
H       -1.3318345793    1.6486407242   -0.0055225089
H       -1.2791840560    1.2004816428   -2.6223305398
16   
torsion grid (-150,)
C       -0.7311494288   -2.7915865067    1.8023221133
C        0.2292868727   -1.6894718955    1.3638965505
N       -0.2975251211   -1.0519530144    0.1331528473
N       -0.7101018610    1.4780452718   -0.7509073722
O        1.3197177264    0.8591271019    0.6170860464
O        1.0520211142   -0.0184029621   -1.7878021911
O       -1.6846795743    0.9363518305   -1.6417775324
S        0.5208637000    0.2950614197   -0.4654371283
H       -0.3670568723   -3.2550014022    2.7244495600
H       -1.7311463918   -2.3876129574    1.9838968838
H       -0.8108964310   -3.5787823320    1.0440890014
H        0.3040808866   -0.9154942373    2.1288822762
H        1.2364848708   -2.0944209544    1.2063362399
H       -0.4309660137   -1.7117453888   -0.6316671996
H       -1.2098902309    1.6212750837    0.1301986148
H       -1.4280298022    1.3212261129   -2.4979661489
16   
torsion grid (-135,)
C       -0.7609458862   -2.7748896747    1.7585369281
C        0.1597474315   -1.6159145596    1.3861704382
N       -0.1774225936   -1.1453948976    0.0259214182
N       -0.6572732796    1.4468468878   -0.6661605123
O        1.4867487248    0.7573704086    0.4358194624
O        0.9393744919   -0.0447336374   -1.9547850649
O       -1.7562135610    0.9679587022   -1.4351683793
S        0.5702199991    0.2305084272   -0.5710081666
H       -0.5338810196   -3.1186433103    2.7722911571
H       -1.8102291010   -2.4692697442    1.7177169645
H       -0.6241826012   -3.6257143273    1.0814935220
H        0.0163392837   -0.7795111303    2.0736274052
H        1.2121931600   -1.9145679042    1.4556255213
H       -0.1727194672   -1.8677183771   -0.6909464364
H       -1.0298903384    1.5951897114    0.2748728514
H       -1.6008517998    1.3750985951   -2.3052545481
16   
torsion grid (-120,)
C       -0.7622253805   -2.7768847965    1.7258081191
C        0.0633900457   -1.5405274130    1.3812036338
N       -0.1383429999   -1.2014942453   -0.0417867958
N       -0.5915069884    1.4201540520   -0.6033077159
O        1.6207789478    0.6585405833    0.2768719179
O        0.8477475773   -0.0886110803   -2.0630603698
O       -1.7828367934    1.0002664465   -1.2558242523
S        0.6016858453    0.1723851237   -0.6501030217
H       -0.6384867066   -3.0240818297    2.7844230093
H       -1.8237977824   -2.6063706386    1.5262367832
H       -0.4370380644   -3.6457135197    1.1422993423
H       -0.2721294349   -0.6879854849    1.9787169888
H        1.1238011949   -1.6976703707    1.6088199547
H        0.0072610664   -1.9717957449   -0.6915518683
H       -0.8513016724    1.5884574566    0.3714223526
H       -1.7059854108    1.4179466312   -2.1314155169
16   
torsion grid (-105,)
C       -0.7554624361   -2.7751652959    1.7084562779
C       -0.0351108269   -1.4771895376    1.3545441766
N       -0.1279650421   -1.2489087266   -0.1015207826
N       -0.5310311119    1.3914756909   -0.5470150947
O        1.7236272418    0.5611887806    0.1398840313
O        0.7736970343   -0.1134878042   -2.1457407620
O       -1.7871536691    1.0269692534   -1.0998361991
S        0.6223637114    0.1231216649   -0.7162096236
H       -0.7189484990   -2.9395627676    2.7894386510
H       -1.8020174907   -2.7394184886    1.3936582910
H       -0.2784738456   -3.6357140844    1.2257154211
H       -0.5252591674   -0.6353634315    1.8544616151
H        1.0071663238   -1.4979620335    1.6929048575
H        0.1633173049   -2.0476668874   -0.6641976583
H       -0.6953137651    1.5667365985    0.4467153195
H       -1.7724223191    1.4575622386   -1.9725059596
16   
torsion grid (-90,)
C       -0.7501864972   -2.7681306422    1.6938273021
C       -0.1314979845   -1.4255445914    1.3147638155
N       -0.1188751650   -1.2925747911   -0.1585892699
N       -0.4749229188    1.3625952611   -0.4946245570
O        1.8072667058    0.4712263132    0.0183882244
O        0.7128109368   -0.1173243472   -2.2141744831
O       -1.7801034190    1.0387592037   -0.9479819634
S        0.6396798780    0.0837638532   -0.7739006832
H       -0.7997256384   -2.8627962064    2.7825884554
H       -1.7610822841   -2.8599000627    1.2874033995
H       -0.1476945659   -3.6016954549    1.3152900051
H       -0.7485403143   -0.6137474579    1.7137731942
H        0.8746284928   -1.3217794491    1.7380860630
H        0.3156247455   -2.0982715448   -0.6115211231
H       -0.5496690981    1.5404440250    0.5089323227
H       -1.8266994302    1.4815910610   -1.8135081411
16   
torsion grid (-75,)
C       -0.7524834079   -2.7498132873    1.6794358941
C       -0.2276938143   -1.3785880953    1.2621699796
N       -0.0902530909   -1.3387601262   -0.2126313227
N       -0.4159165691    1.3311853166   -0.4427952291
O        1.8869216694    0.3900656865   -0.1138508219
O        0.6460042739   -0.1080422546   -2.2813915249
O       -1.7622449830    1.0267815003   -0.7722560386
S        0.6586540858    0.0496614804   -0.8347283822
H       -0.9000828110   -2.7801396178    2.7629877458
H       -1.7059843575   -2.9652553523    1.1896746712
H       -0.0417402909   -3.5421876342    1.4185024537
H       -0.9552383439   -0.6113943977    1.5440819858
H        0.7216028301   -1.1557555363    1.7656558056
H        0.4743522868   -2.1272178102   -0.5375243626
H       -0.3912762624    1.5082778794    0.5630459196
H       -1.8836077714    1.4677974184   -1.6316242123
16   
torsion grid (-60,)
C       -1.0012025167   -2.5893125191    1.1160856359
C       -0.4501670193   -1.2190533573    1.5137252289
N        0.8091738629   -0.8139373779    0.8226294414
N       -0.1328672133    1.2083234110   -0.7103612242
O        2.0500339192    0.0551570766   -1.1861137736
O       -0.1597701742   -1.1637558846   -1.6191465852
O       -1.5128932694    1.0601589910   -0.3868649311
S        0.6930573307   -0.3069214430   -0.7987586065
H       -1.8837669371   -2.8221644085    1.7213495050
H       -1.2831920555   -2.6134382515    0.0617925011
H       -0.2598651822   -3.3775056987    1.2943238228
H       -1.1915010958   -0.4379630803    1.3472095681
H       -0.1999895339   -1.2024051750    2.5794732574
H        1.4528265229   -1.6103487664    0.8161037570
H        0.2751326150    1.7619933619    0.0462935048
H       -1.9439958096    1.0877882912   -1.2589885407
16   
torsion grid (-45,)
C       -0.9014073842   -2.7194693424    1.1557203728
C       -0.5636051730   -1.2610018928    1.4656273209
N        0.6854509468   -0.7649402701    0.8214500383
N       -0.0380479632    1.2910913221   -0.7792090186
O        1.9814194410   -0.1392690067   -1.2404614583
O       -0.3785412887   -1.0961261919   -1.5664210808
O       -1.3865266017    1.3067798143   -0.3120887750
S        0.5989548243   -0.3163263602   -0.8123146689
H       -1.7982073804   -3.0201652497    1.7078941452
H       -1.0848217349   -2.8622605147    0.0887332523
H       -0.0855454867   -3.3848677354    1.4630912136
H       -1.3746550271   -0.5956767143    1.1701863884
H       -0.4097229477   -1.1207851902    2.5405106340
H        1.4217012314   -1.4722104326    0.8818587924
H        0.4936509142    1.8249835295   -0.0874887434
H       -1.8990829265    1.3468594047   -1.1383358519
16   
torsion grid (-30,)
C       -0.8301979929   -2.8029396467    1.1726225692
C       -0.6489295945   -1.3085407685    1.4388393640
N        0.5682544874   -0.7208896289    0.8243166586
N        0.0309817812    1.3366140011   -0.8476338010
O        1.9148009620   -0.2891716664   -1.2557417828
O       -0.5329953537   -1.0374913087   -1.5209324588
O       -1.2655661942    1.4716608561   -0.2636331499
S        0.5239840794   -0.3206937327   -0.8151090841
H       -1.7162620649   -3.1729349982    1.6995279575
H       -0.9549789976   -2.9966759255    0.1049151377
H        0.0332849539   -3.3737361737    1.5347539013
H       -1.5041748393   -0.7363048076    1.0790202990
H       -0.5626304883   -1.1122131364    2.5124725348
H        1.3952675233   -1.3029949395    0.9631643028
H        0.6560850097    1.8545891194   -0.2251608308
H       -1.8459098279    1.5283379258   -1.0426690564
16   
torsion grid (-15,)
C       -0.7703545548   -2.8680896156    1.1889462900
C       -0.7126658143   -1.3590293556    1.4251962764
N        0.4632803814   -0.6937893593    0.8216793571
N        0.0898892005    1.3678922520   -0.9006448640
O        1.8393532962   -0.4126064557   -1.2705035899
O       -0.6671879892   -0.9739131838   -1.4802593337
O       -1.1596236886    1.6113110318   -0.2527725872
S        0.4549952638   -0.3220649000   -0.8148469001
H       -1.6379012380   -3.2959360546    1.7029731887
H       -0.8555760572   -3.0906293803    0.1226546822
H        0.1263292358   -3.3625711656    1.5804643565
H       -1.6005865578   -0.8659033018    1.0286515046
H       -0.6712677257   -1.1305726568    2.4951003873
H        1.3577530326   -1.1284880669    1.0432174972
H        0.7818385419    1.8596527218   -0.3295958223
H       -1.7772618833    1.6813526600   -1.0015078820
16   
torsion grid (0,)
C       -0.7152996598   -2.9230431570    1.2007125889
C       -0.7644913221   -1.4108502763    1.4184893990
N        0.3674945796   -0.6777968162    0.8193943681
N        0.1437989677    1.3870755938   -0.9394495052
O        1.7577642101   -0.5183454985   -1.2852491034
O       -0.7861911775   -0.9101775309   -1.4405653933
O       -1.0631797083    1.7366917180   -0.2629670409
S        0.3901689175   -0.3229673018   -0.8108316733
H       -1.5594858967   -3.4039192704    1.7068356694
H       -0.7703689717   -3.1612396341    0.1355514553
H        0.2080906135   -3.3505283384    1.6077563608
H       -1.6781725288   -0.9865836678    1.0009233338
H       -0.7551823278   -1.1650169835    2.4852680961
H        1.2981557298   -0.9498555981    1.1268014410
H        0.8869840550    1.8490702648   -0.4095112568
H       -1.6990720371    1.8241016660   -0.9944061783
16   
torsion grid (15,)
C       -0.6586973793   -2.9723587270    1.2201120521
C       -0.8128567060   -1.4629797052    1.4050005663
N        0.2778410136   -0.6739034392    0.8057193389
N        0.1899890383    1.3982828668   -0.9670798092
O        1.6676064532   -0.6051982262   -1.3157588444
O       -0.8959133556   -0.8457115978   -1.4148017949
O       -0.9586360763    1.8516845443   -0.2564192486
S        0.3247384786   -0.3224165360   -0.8144699503
H       -1.4778773645   -3.4993179318    1.7215003146
H       -0.6803580573   -3.2330140618    0.1586616381
H        0.2851149408   -3.3292877881    1.6468884442
H       -1.7447205587   -1.1114438328    0.9607546032
H       -0.8387967074   -1.1929944639    2.4655369850
H        1.2094942996   -0.7765751929    1.1976326193
H        0.9889939683    1.8220806494   -0.4893352730
H       -1.6149085437    1.9697686117   -0.9651890802
16   
torsion grid (30,)
C       -0.7168853234   -2.9126478991    1.5736274162
C       -0.8387282474   -1.5105141874    0.9809690924
N        0.3955011504   -1.1597581432    0.2573480007
N        0.1692307824    1.4749356457   -0.6210540511
O        1.8027916411   -0.1804992581   -1.5612377354
O       -0.7369919900   -0.5256944994   -1.8862246256
O       -1.0048255062    1.5699360363    0.1876285914
S        0.4261199673   -0.1878457541   -1.0796744898
H       -1.6375902946   -3.1733926628    2.1055133651
H       -0.5445132225   -3.6508259446    0.7856990541
H        0.1096358902   -2.9742811621    2.2907617272
H       -1.6492987967   -1.4755317027    0.2515496220
H       -1.0565705273   -0.7692855912    1.7575900009
H        1.2746302865   -1.1622342962    0.7668802511
H        0.9402382921    1.7563052411   -0.0102130350
H       -1.6717306584    1.8979493475   -0.4404106229
16   
torsion grid (45,)
C       -0.7004549380   -2.9030769872    1.6067753705
C       -0.8692258385   -1.5602075871    0.8999543763
N        0.3883994193   -1.2041148562    0.2092723643
N        0.2028999281    1.4733572176   -0.5924237378
O        1.7567107831   -0.1922259633   -1.6403840848
O       -0.7923176155   -0.4807526129   -1.8787055220
O       -0.9253684876    1.5793130995    0.2762253151
S        0.4018899010   -0.1815434228   -1.1030231947
H       -1.6351663044   -3.1806874489    2.1045152590
H       -0.4372381352   -3.6860737898    0.8905124959
H        0.0827880068   -2.8589012647    2.3721635326
H       -1.6393994948   -1.6283322616    0.1305442841
H       -1.1659013943   -0.7759342377    1.6043850963
H        1.1958805603   -1.0576465603    0.8114776181
H        1.0120128730    1.7345019139   -0.0233533046
H       -1.6144958199    1.9389399310   -0.3091833072
16   
torsion grid (60,)
C       -0.6780554715   -2.8876035927    1.6405063862
C       -0.9095161011   -1.6291031806    0.8076726299
N        0.3718796815   -1.2136777148    0.1880693253
N        0.2438606501    1.4752961277   -0.5800661736
O        1.6848755133   -0.2197567153   -1.7371620122
O       -0.8692201109   -0.4381630469   -1.8538363207
O       -0.7961976593    1.5954949200    0.3896753831
S        0.3632258495   -0.1753353940   -1.1258370078
H       -1.6235568263   -3.2183996811    2.0820818220
H       -0.2790249994   -3.6943669781    1.0196966792
H        0.0251685220   -2.7046293839    2.4610871006
H       -1.6021438200   -1.8328434873   -0.0092864275
H       -1.3323340385   -0.8238019672    1.4174306156
H        1.0740326580   -0.9312094457    0.8706591250
H        1.1098483540    1.7180604710   -0.0921444374
H       -1.5218287580    1.9966542386   -0.1197941267
16   
torsion grid (75,)
C       -0.6622264597   -2.8312053578    1.6910333912
C       -0.9470313592   -1.7335720198    0.6694849819
N        0.3453861509   -1.2191094659    0.1488217469
N        0.2986360631    1.4725488724   -0.5397791554
O        1.5804364564   -0.2315858479   -1.8617441440
O       -0.9722501282   -0.3536163454   -1.8222937049
O       -0.6210386592    1.5800424965    0.5461070508
S        0.3077751724   -0.1559139397   -1.1574616499
H       -1.6053441363   -3.2471044345    2.0590689771
H       -0.0759309463   -3.6375033828    1.2416594634
H       -0.1110528864   -2.4444271314    2.5561259774
H       -1.4975615558   -2.1343653813   -0.1813849873
H       -1.5457150325   -0.9310118130    1.1132895801
H        0.9213485907   -0.8356013166    0.8981398664
H        1.2224426003    1.6742612650   -0.1485911670
H       -1.3768604267    2.0447789720    0.1462763344
16   
torsion grid (90,)
C       -0.6568196142   -2.7904252485    1.7218576175
C       -0.9520649532   -1.8354266988    0.5688483354
N        0.3197926108   -1.1924980157    0.1486514566
N        0.3536873745    1.4739976835   -0.5192991981
O        1.4540897774   -0.2562970005   -1.9703837915
O       -1.0848545615   -0.2717349948   -1.7574281943
O       -0.4514314625    1.5846858355    0.6536628546
S        0.2420724574   -0.1361018129   -1.1716843137
H       -1.5766831743   -3.3007688748    2.0235115206
H        0.0792245684   -3.5431539730    1.4260216058
H       -0.2717876093   -2.2561430602    2.5983744333
H       -1.3418220369   -2.3813610257   -0.2905153375
H       -1.7009762972   -1.0906305232    0.8597820722
H        0.7510201353   -0.7152272820    0.9405782986
H        1.3188017577    1.6334890348   -0.2186414754
H       -1.2212355289    2.0942111259    0.3454166768
16   
torsion grid (105,)
C       -0.6507849349   -2.8235142107    1.6959656523
C        0.2368266127   -1.8447857552    0.9327227562
N       -0.4298681960   -0.5189588808    0.9089885028
N       -0.6552142619    1.2402540296   -1.1493153661
O        0.4817599424    1.9060417448    0.9855199740
O        1.6018499876    0.1648914601   -0.4931329902
O       -1.2291578918    0.1093715457   -1.8020504437
S        0.4099654777    0.7314424891    0.1269184330
H       -0.1635633455   -3.8020174933    1.7474961416
H       -0.8351967943   -2.4709732850    2.7145239601
H       -1.6174777617   -2.9601991122    1.1971639946
H        1.1944573671   -1.7238555940    1.4418526728
H        0.4442242877   -2.2077912129   -0.0800720074
H       -1.3616748071   -0.5956629419    0.5002988635
H       -1.4348438000    1.7551166916   -0.7319346286
H       -0.7302884387    0.0572556947   -2.6361929539
16   
torsion grid (120,)
C       -0.6592126989   -2.8289695515    1.7180044884
C        0.2754775806   -1.8433660797    1.0230003954
N       -0.4523123134   -0.5726695562    0.7947642101
N       -0.6902979912    1.3013118973   -1.1063333595
O        0.6272385829    1.7788369917    0.9736424835
O        1.5558844954    0.0916196899   -0.6871650288
O       -1.3369580288    0.2452467811   -1.8149219525
S        0.4364587770    0.6668743988    0.0516662534
H       -0.1299919826   -3.7662111915    1.9152582421
H       -1.0183628065   -2.4233598358    2.6677922163
H       -1.5278862183   -3.0635471125    1.0917011037
H        1.1334695783   -1.6222190700    1.6622107193
H        0.6601584616   -2.2573001156    0.0839264779
H       -1.3068057236   -0.7207474241    0.2557635367
H       -1.4288352553    1.7942806781   -0.5977769398
H       -0.8770110138    0.2368346696   -2.6727802853
16   
torsion grid (135,)
C       -0.6639890438   -2.8279081771    1.7497553482
C        0.2897129758   -1.8357091409    1.0909702682
N       -0.4714022865   -0.6325996159    0.6812614358
N       -0.7176488393    1.3560527030   -1.0553070509
O        0.7497864456    1.6265328540    0.9724933582
O        1.4961935050    0.0479811286   -0.8780837169
O       -1.3983023647    0.3716004581   -1.8349459052
S        0.4521913493    0.6033286882   -0.0211170306
H       -0.1117365252   -3.7139774152    2.0773144933
H       -1.1539828035   -2.3795716207    2.6183080168
H       -1.4387371422   -3.1592719373    1.0486320579
H        1.0509732815   -1.5133522658    1.8063451617
H        0.8049295539   -2.2904754749    0.2365885528
H       -1.2307480144   -0.8553285767    0.0337815891
H       -1.4344049726    1.7854263751   -0.4643826131
H       -0.9618216753    0.4338871871   -2.7028614043
16   
torsion grid (150,)
C       -0.6667720498   -2.8244414577    1.7752941564
C        0.2953095124   -1.8160731551    1.1545906978
N       -0.4811680524   -0.6912836853    0.5817223045
N       -0.7393383399    1.4004315105   -1.0031881312
O        0.8672316691    1.4631523920    0.9541784367
O        1.4203291170    0.0135391543   -1.0645554412
O       -1.4442153608    0.4885721480   -1.8504589556
S        0.4605884657    0.5416849436   -0.0983953286
H       -0.1042914708   -3.6487144417    2.2242145930
H       -1.2766630239   -2.3534093962    2.5510003412
H       -1.3366414109   -3.2509421154    1.0198520014
H        0.9510832948   -1.3977055374    1.9227619045
H        0.9256159739   -2.2929307630    0.3939333750
H       -1.1396795480   -0.9989329342   -0.1385897375
H       -1.4382643184    1.7514315712   -0.3430216518
H       -1.0321110147    0.6322369360   -2.7205860035
16   
torsion grid (165,)
C       -0.6745615080   -2.8189872274    1.8010843361
C        0.2923667539   -1.7981141181    1.2088938885
N       -0.4800703999   -0.7628505801    0.4779699897
N       -0.7480671243    1.4410657053   -0.9483827161
O        0.9693550760    1.2910054899    0.9249505107
O        1.3427162376   -0.0001800080   -1.2412177389
O       -1.4843501264    0.6142643834   -1.8561112106
S        0.4659289761    0.4811350806   -0.1763491253
H       -0.1193351500   -3.5744659007    2.3653631290
H       -1.3877519715   -2.3340239742    2.4732433544
H       -1.2368106401   -3.3366366704    1.0155595831
H        0.8403440011   -1.2870256838    2.0039932656
H        1.0218740093   -2.2897026963    0.5529615771
H       -1.0237348651   -1.1610794518   -0.2919702917
H       -1.4252473672    1.7171404923   -0.2322495479
H       -1.0916424581    0.8350703291   -2.7189864425
16   
torsion grid (180,)
C       -0.6823497977   -2.8148340955    1.8167333977
C        0.2844211775   -1.7698821054    1.2675218009
N       -0.4580820958   -0.8460279504    0.3720168008
N       -0.7475375856    1.4704701468   -0.8939142656
O        1.0711967736    1.1262838660    0.8584109521
O        1.2552107488   -0.0125673192   -1.4209796976
O       -1.5401229113    0.7398400165   -1.8356315020
S        0.4721292062    0.4185728491   -0.2658995260
H       -0.1550767066   -3.4850676277    2.5024937441
H       -1.5038383221   -2.3368397133    2.3576595557
H       -1.1077364917   -3.4274804959    1.0138001916
H        0.6981893001   -1.1665640251    2.0776424487
H        1.1182782747   -2.2542396092    0.7432391180
H       -0.8779417618   -1.3419651636   -0.4169085794
H       -1.3879563182    1.6881782756   -0.1258972136
H       -1.1777700464    1.0287381210   -2.6915346644
