30   
torsion grid (-165,)
C       -0.9928886735   -1.9517201086   -0.0153247812
C       -0.9134832376   -0.5636260243    0.2012279572
C       -1.9257339848   -0.8287199771    2.4054438056
C       -1.9977031270   -2.1941415687    2.1944233188
C       -1.5332626090   -2.7455456056    0.9857490660
C       -1.3793407223   -0.0134368560    1.3982812694
C       -2.2954563188   -4.5605601901    2.2057761633
C        0.4590281834    2.3665264253    0.3410662955
C       -2.5269656161   -3.3037694758    3.0807707065
C       -4.0329267104   -3.1647436907    3.3709020739
C       -1.7276389094   -3.4491408020    4.3889845654
C       -1.0388196237    2.2512291472    0.6476170015
N       -1.7207714821   -4.1378783237    1.0191591395
O       -2.5650711994   -5.7147876681    2.4965047449
O        0.8793480469    2.7381940665   -0.7296129358
O        1.2740730330    2.0309164054    1.3668369634
O       -1.3200706898    1.3429086841    1.7084498389
H       -0.6285217825   -2.3754933665   -0.9469294425
H       -0.4767830897    0.0552677676   -0.5746005733
H       -2.2809849189   -0.3672540669    3.3227803725
H       -4.3936802219   -4.0557183168    3.8923487829
H       -4.6055228542   -3.0467742620    2.4460804860
H       -4.2161264579   -2.2883906137    4.0007440904
H       -2.0547322050   -4.3438964175    4.9258944304
H       -1.8887777416   -2.5751313007    5.0281014260
H       -0.6550362081   -3.5350163261    4.1907565158
H       -1.5734124582    1.9934721050   -0.2693898894
H       -1.3855448447    3.2296180174    0.9916165581
H       -1.4721400161   -4.7850157970    0.2812117870
H        0.7451746200    1.5426940532    2.0283678347
30   
torsion grid (-150,)
C       -0.9824241883   -1.9327559784   -0.0121708667
C       -0.9084921665   -0.5447695456    0.2087109296
C       -1.9214156172   -0.8241674692    2.4118732569
C       -1.9889240706   -2.1887190196    2.1945921556
C       -1.5207080266   -2.7335501577    0.9842317759
C       -1.3769529413   -0.0019166088    1.4086150709
C       -2.2813320822   -4.5558321759    2.1936173628
C        0.4653103814    2.3567369391    0.3616632113
C       -2.5184080078   -3.3038418703    3.0740066986
C       -4.0257722930   -3.1694193850    3.3592312984
C       -1.7238042418   -3.4542233382    4.3844866663
C       -1.0336886602    2.2652083487    0.6716872893
N       -1.7041764152   -4.1266752697    1.0106518732
O       -2.5494378061   -5.7119996710    2.4781366801
O        0.8952046486    2.6123773207   -0.7383150338
O        1.2759792416    2.1106528292    1.4216838881
O       -1.3243749900    1.3519957375    1.7255604752
H       -0.6165292519   -2.3510287055   -0.9456482923
H       -0.4776181041    0.0790368422   -0.5663546201
H       -2.2795704392   -0.3677479625    3.3306148037
H       -4.3865582051   -4.0637343436    3.8749142626
H       -4.5951637791   -3.0481452853    2.4328534955
H       -4.2132274588   -2.2965404743    3.9926186547
H       -2.0514593465   -4.3521914579    4.9156814251
H       -1.8888673947   -2.5836938812    5.0273287736
H       -0.6503135673   -3.5374594514    4.1899630168
H       -1.5749699260    2.0204082124   -0.2451302359
H       -1.3644574547    3.2450548536    1.0270450332
H       -1.4532110868   -4.7696260710    0.2698339213
H        0.8174571855    1.4949857281    2.0249702763
30   
torsion grid (-135,)
C       -1.0155178343   -1.8984823206   -0.0409244667
C       -0.9964874837   -0.5045435797    0.1591476673
C       -1.9912790613   -0.7923642862    2.3690024249
C       -2.0079145516   -2.1604447618    2.1706783368
C       -1.5205957247   -2.7052490763    0.9669814008
C       -1.4815170125    0.0398890486    1.3531412169
C       -2.2097636773   -4.5368731420    2.2050787470
C        0.4718700495    2.2742306053    0.4143174390
C       -2.4916137960   -3.2820444168    3.0679556110
C       -4.0018128260   -3.1997987511    3.3575827882
C       -1.6868834424   -3.3829459316    4.3770919927
C       -1.0445357453    2.2935937704    0.6471695202
N       -1.6503838104   -4.1037157096    1.0149173227
O       -2.4338205582   -5.6980078502    2.5066739655
O        0.9640924840    2.6030704723   -0.6379531305
O        1.2250529724    1.8712551272    1.4768340408
O       -1.4891958018    1.3934768102    1.6502700657
H       -0.6368535747   -2.3148574424   -0.9701562371
H       -0.6030629510    0.1230254019   -0.6324995527
H       -2.3618093385   -0.3367526404    3.2831876394
H       -4.3269749281   -4.0994087932    3.8874984353
H       -4.5788056522   -3.1131141026    2.4320461671
H       -4.2192257016   -2.3254549458    3.9792122759
H       -1.9787631639   -4.2844104113    4.9229716990
H       -1.8817468552   -2.5095689145    5.0075433163
H       -0.6117487969   -3.4293279493    4.1791853691
H       -1.5484484599    2.1271570027   -0.3090583722
H       -1.3070242604    3.2915227279    1.0088515369
H       -1.3775214456   -4.7477206916    0.2827856612
H        0.8326792920    1.0729545814    1.8745164595
30   
torsion grid (-120,)
C       -1.0596081961   -1.8981794787   -0.0329300274
C       -1.0773692654   -0.5003650905    0.1441413185
C       -2.0566271076   -0.7768984268    2.3615021090
C       -2.0413552586   -2.1475145441    2.1846472054
C       -1.5419928574   -2.7003936397    0.9890349801
C       -1.5708790907    0.0542777380    1.3316427108
C       -2.1757362977   -4.5278288444    2.2627774006
C        0.4508459497    2.1911045556    0.4593038716
C       -2.4941710321   -3.2658144436    3.1020200950
C       -4.0077648793   -3.2212872451    3.3841107533
C       -1.6928914210   -3.3190055510    4.4156667163
C       -1.0690954395    2.2945629423    0.6444316869
N       -1.6325730704   -4.1006996640    1.0627500043
O       -2.3640041405   -5.6892468986    2.5865780301
O        0.9947329382    2.6132397527   -0.5316077997
O        1.1449056235    1.6264474261    1.4951257667
O       -1.6171546356    1.4068525058    1.6027792720
H       -0.6742896769   -2.3197884051   -0.9570803807
H       -0.7141356537    0.1235013618   -0.6649444692
H       -2.4313808542   -0.3160603964    3.2712249641
H       -4.3093496487   -4.1197876430    3.9296161812
H       -4.5827850229   -3.1685406970    2.4547870620
H       -4.2526156366   -2.3418831569    3.9880759562
H       -1.9617061453   -4.2179021163    4.9773668358
H       -1.9149623819   -2.4398172729    5.0287102089
H       -0.6159596628   -3.3388736257    4.2231327255
H       -1.5455627004    2.1891211351   -0.3353565023
H       -1.2807847464    3.2994848939    1.0195174140
H       -1.3451322465   -4.7500391648    0.3409813332
H        0.8539949468    0.7065419423    1.6335495437
30   
torsion grid (-105,)
C       -1.0442690337   -1.9027444719   -0.0386101837
C       -1.0608300735   -0.5037788230    0.1323074290
C       -2.0518238811   -0.7658319769    2.3452228936
C       -2.0397083628   -2.1373014614    2.1744053117
C       -1.5343550560   -2.6980843009    0.9849436528
C       -1.5586151266    0.0590703853    1.3141679753
C       -2.1831189386   -4.5170375391    2.2635589509
C        0.5158523293    2.1103347119    0.4871706791
C       -2.5015702514   -3.2496414983    3.0946215675
C       -4.0162113365   -3.1978194771    3.3689846992
C       -1.7070861334   -3.2995254934    4.4126328587
C       -0.9994826956    2.2867044065    0.6428540419
N       -1.6299973303   -4.0980819056    1.0655270444
O       -2.3786136807   -5.6762054462    2.5917387297
O        1.1001520814    2.4827848863   -0.4999580626
O        1.1587051364    1.5598402530    1.5700091848
O       -1.6075285753    1.4120899650    1.5745521302
H       -0.6562059575   -2.3297800760   -0.9592004152
H       -0.6973313260    0.1160016428   -0.6798827514
H       -2.4289738616   -0.2994767779    3.2510929376
H       -4.3240980966   -4.0922084223    3.9177409318
H       -4.5863973664   -3.1477635220    2.4365338841
H       -4.2606008898   -2.3142119792    3.9669620356
H       -1.9822482150   -4.1945807428    4.9774152571
H       -1.9286390328   -2.4163479247    5.0200803957
H       -0.6292940609   -3.3245043243    4.2255651757
H       -1.4578570613    2.2190533949   -0.3492082285
H       -1.1725218389    3.2951105588    1.0292012539
H       -1.3406242489   -4.7521991354    0.3489037152
H        1.0205440710    0.5957274919    1.5912342955
30   
torsion grid (-90,)
C       -1.0516751393   -1.8916631394   -0.0463376040
C       -1.0738346122   -0.4927944164    0.1239230165
C       -2.0609673913   -0.7588064119    2.3381661087
C       -2.0440330412   -2.1304643122    2.1676117848
C       -1.5373413806   -2.6889712169    0.9779355044
C       -1.5720334911    0.0674694234    1.3065461365
C       -2.1785436638   -4.5106205153    2.2563663952
C        0.5136680768    2.0840689675    0.5055554493
C       -2.5015684991   -3.2446669965    3.0878742791
C       -4.0164615084   -3.1986941650    3.3620479791
C       -1.7073719510   -3.2921683579    4.4060696136
C       -0.9975131341    2.2916679315    0.6477329693
N       -1.6274560689   -4.0898939971    1.0584511721
O       -2.3697106750   -5.6707265294    2.5846438521
O        1.1130429385    2.4085794843   -0.4895674246
O        1.1339183674    1.6081742401    1.6392077723
O       -1.6289720892    1.4199987078    1.5649419949
H       -0.6644645714   -2.3175940086   -0.9678760647
H       -0.7157538715    0.1285386846   -0.6893945592
H       -2.4383137916   -0.2936807504    3.2445933857
H       -4.3212080728   -4.0942438418    3.9107233486
H       -4.5865541502   -3.1506782771    2.4294250774
H       -4.2643022630   -2.3159353245    3.9598801271
H       -1.9794610695   -4.1882964638    4.9706995973
H       -1.9319977949   -2.4098174812    5.0136094417
H       -0.6294520531   -3.3132886967    4.2191572224
H       -1.4462365523    2.2421980181   -0.3499668100
H       -1.1550058460    3.2996090990    1.0425892444
H       -1.3378885840   -4.7428519365    0.3408939347
H        1.2193631295    0.6396756964    1.6031374836
30   
torsion grid (-75,)
C       -1.0293325497   -1.9101711583   -0.0007782723
C       -1.0327939978   -0.5124437334    0.1786476602
C       -2.0604066139   -0.7782004098    2.3732283542
C       -2.0621585777   -2.1489569451    2.1934385734
C       -1.5440852002   -2.7075807034    1.0091390447
C       -1.5413031623    0.0477393022    1.3566109462
C       -2.2336199660   -4.5277569059    2.2641247114
C        0.6073679645    2.0206991932    0.6419988820
C       -2.5517029729   -3.2622257293    3.0983738322
C       -4.0701545116   -3.1955710496    3.3473031847
C       -1.7809362125   -3.3300827473    4.4294785032
C       -0.9011580664    2.2632553988    0.7362349560
N       -1.6566396667   -4.1079369315    1.0785233870
O       -2.4475073923   -5.6870956203    2.5817946100
O        1.2480334250    2.3283797142   -0.3339220350
O        1.1706638803    1.5792204332    1.8166432473
O       -1.5845743930    1.3995343500    1.6220426401
H       -0.6335865634   -2.3359079744   -0.9188189730
H       -0.6506326288    0.1085554647   -0.6237972592
H       -2.4448926162   -0.3136367723    3.2769349487
H       -4.3974621924   -4.0899255455    3.8848763985
H       -4.6234823274   -3.1331394128    2.4054766216
H       -4.3150412236   -2.3129323856    3.9465474432
H       -2.0756426945   -4.2257043035    4.9835132151
H       -2.0027943559   -2.4483381108    5.0389300739
H       -0.7004333362   -3.3657322399    4.2605421931
H       -1.3141309578    2.2338783369   -0.2776541795
H       -1.0486216571    3.2716762367    1.1339791078
H       -1.3652032549   -4.7605849719    0.3615027603
H        1.4812920153    0.6623630038    1.7240448239
30   
torsion grid (-60,)
C       -1.0354143349   -1.9229258620   -0.0061776475
C       -1.0318341222   -0.5256746662    0.1746326984
C       -2.0582882084   -0.7879976864    2.3702741767
C       -2.0661855623   -2.1587083279    2.1896417271
C       -1.5527075598   -2.7183058945    1.0041068267
C       -1.5365336945    0.0353148618    1.3533512465
C       -2.2471574946   -4.5369085258    2.2590364045
C        0.6053922521    2.0250328797    0.6234058726
C       -2.5579131902   -3.2707017506    3.0950885127
C       -4.0752093108   -3.1984804114    3.3489556380
C       -1.7831757594   -3.3425949420    4.4236902337
C       -0.9048661281    2.2483051400    0.7217258008
N       -1.6713419848   -4.1185792663    1.0727589729
O       -2.4652175148   -5.6957691127    2.5764858299
O        1.2412593759    2.3257309323   -0.3602964139
O        1.1681017785    1.6388132444    1.8107247937
O       -1.5748509588    1.3876902379    1.6189136146
H       -0.6423888814   -2.3501837330   -0.9247281966
H       -0.6435626752    0.0940961529   -0.6257982347
H       -2.4392845981   -0.3222900157    3.2748789230
H       -4.4043778941   -4.0919021173    3.8869921398
H       -4.6312277427   -3.1332157871    2.4088980243
H       -4.3148015005   -2.3152450613    3.9494976059
H       -2.0793349211   -4.2375526511    4.9780797454
H       -1.9997348179   -2.4604032313    5.0344288596
H       -0.7033920694   -3.3817969681    4.2510412096
H       -1.3179688253    2.2024520458   -0.2914191371
H       -1.0635798957    3.2600930489    1.1067482026
H       -1.3838434207   -4.7719039316    0.3548105901
H        1.7083608931    0.8405850275    1.6794239577
30   
torsion grid (-45,)
C       -1.0341454061   -1.9296091184    0.0208452973
C       -1.0204827036   -0.5337614520    0.2098319732
C       -2.0638339643   -0.8005977500    2.3967820499
C       -2.0805659648   -2.1702592768    2.2085106934
C       -1.5641597104   -2.7267873068    1.0230983196
C       -1.5290382987    0.0239802369    1.3880393420
C       -2.2793230666   -4.5475132967    2.2632674814
C        0.6128252350    2.0431332260    0.6690718593
C       -2.5852875988   -3.2837947439    3.1049221948
C       -4.1031724772   -3.2021854462    3.3519017928
C       -1.8175085386   -3.3689103021    4.4367998347
C       -0.9006416034    2.2402127054    0.7611242383
N       -1.6938468902   -4.1267322593    1.0828804447
O       -2.5078489503   -5.7066251849    2.5729531718
O        1.2501853421    2.3390957723   -0.3176062305
O        1.1694957569    1.6867717471    1.8604385194
O       -1.5606300006    1.3757219292    1.6613395936
H       -0.6373666053   -2.3548178488   -0.8970525966
H       -0.6174802418    0.0870413388   -0.5823877838
H       -2.4474445117   -0.3372294268    3.3015042162
H       -4.4414360312   -4.0961963174    3.8833182811
H       -4.6540970682   -3.1276304009    2.4095297235
H       -4.3393797386   -2.3205927857    3.9562201823
H       -2.1223762859   -4.2650853136    4.9845075697
H       -2.0309872747   -2.4887976071    5.0516343811
H       -0.7372259994   -3.4141876440    4.2689233157
H       -1.3068423836    2.1806706958   -0.2539447958
H       -1.0775247231    3.2520466944    1.1378873828
H       -1.4061214703   -4.7780839791    0.3632666609
H        1.8936480603    1.0568741667    1.6953394920
30   
torsion grid (-30,)
C       -1.0322422127   -1.9381371482    0.0334558422
C       -1.0097059952   -0.5434712921    0.2280570460
C       -2.0617459834   -0.8097178944    2.4111690588
C       -2.0865963592   -2.1786165269    2.2176672007
C       -1.5709503703   -2.7345024506    1.0317638778
C       -1.5184442508    0.0134067767    1.4062124757
C       -2.3008047291   -4.5547655610    2.2639170920
C        0.6158043751    2.0625628109    0.6800391988
C       -2.6004377142   -3.2919449384    3.1091791658
C       -4.1182188304   -3.2016809201    3.3535675468
C       -1.8357403290   -3.3864743957    4.4421972566
C       -0.8999198734    2.2324282147    0.7746949484
N       -1.7100978063   -4.1338971003    1.0864038249
O       -2.5376429130   -5.7134622941    2.5692807428
O        1.2481404251    2.3577488550   -0.3122527927
O        1.1773247402    1.7032750493    1.8608588180
O       -1.5432787422    1.3652450889    1.6837429598
H       -0.6343095246   -2.3630896168   -0.8840741886
H       -0.5953580443    0.0770844109   -0.5584461956
H       -2.4451656961   -0.3468554661    3.3162653096
H       -4.4631753770   -4.0953231956    3.8813169205
H       -4.6668333638   -3.1204657021    2.4103907775
H       -4.3500718846   -2.3206461905    3.9604063747
H       -2.1471359194   -4.2826631892    4.9862289559
H       -2.0449762020   -2.5071659053    5.0596540186
H       -0.7554640544   -3.4376014601    4.2760914050
H       -1.3063937283    2.1573202303   -0.2390916653
H       -1.0929139901    3.2444693779    1.1428095887
H       -1.4241094287   -4.7847147110    0.3656341487
H        2.0300357843    1.2717237168    1.6667897385
30   
torsion grid (-15,)
C       -1.0102089998   -1.9457272868    0.0740320019
C       -0.9701505079   -0.5531653950    0.2791829513
C       -2.0488426097   -0.8217648497    2.4484622716
C       -2.0900006504   -2.1889269196    2.2453093606
C       -1.5699894332   -2.7424003857    1.0605361358
C       -1.4843731165    0.0015025908    1.4555752325
C       -2.3380892560   -4.5620974349    2.2705461375
C        0.6275115251    2.1109980156    0.7042581469
C       -2.6290368054   -3.3017202976    3.1225495798
C       -4.1479256030   -3.1919951644    3.3515044006
C       -1.8800958486   -3.4174955772    4.4628117220
C       -0.8908753930    2.2275597145    0.8177867941
N       -1.7294833074   -4.1401832749    1.1026692455
O       -2.5942233759   -5.7197681984    2.5643745504
O        1.2428104989    2.4446418518   -0.2881592630
O        1.2117176638    1.7050719908    1.8527728063
O       -1.4944250648    1.3517775182    1.7447040019
H       -0.6073838805   -2.3694536101   -0.8419136889
H       -0.5343791445    0.0668248998   -0.4961444587
H       -2.4367078477   -0.3603997793    3.3524180194
H       -4.5111287955   -4.0847011443    3.8685107042
H       -4.6851567412   -3.0957536562    2.4031880668
H       -4.3739300480   -2.3124658313    3.9627424234
H       -2.2096478298   -4.3136210130    4.9961843049
H       -2.0838947272   -2.5403222117    5.0851227469
H       -0.7989245311   -3.4820761062    4.3077552828
H       -1.3072121215    2.1272017647   -0.1897767272
H       -1.1116266469    3.2376065940    1.1755215907
H       -1.4434935524   -4.7894198177    0.3805023102
H        2.1442504488    1.5081267747    1.6406940831
30   
torsion grid (0,)
C       -0.9201310695   -1.9771544276    0.1794081664
C       -0.8345168598   -0.5906615009    0.4088759401
C       -1.9918960308   -0.8517727112    2.5377614108
C       -2.0764895254   -2.2134395422    2.3112977089
C       -1.5405582043   -2.7676273426    1.1343278453
C       -1.3663930793   -0.0351660945    1.5766801770
C       -2.4165575772   -4.5758509027    2.2880359263
C        0.8009943794    2.0767153970    0.8806322846
C       -2.6836818398   -3.3188360164    3.1528795707
C       -4.2028363213   -3.1535827438    3.3421486781
C       -1.9772831449   -3.4858681197    4.5109612609
C       -0.7190136921    2.1857784589    0.9703562337
N       -1.7545703970   -4.1588225579    1.1478707155
O       -2.7277055828   -5.7270628987    2.5530270834
O        1.4347199705    2.4413343091   -0.0895817908
O        1.3645289171    1.5791792672    2.0011650762
O       -1.3362732128    1.3103781798    1.8878871529
H       -0.5030809510   -2.4017690270   -0.7297306423
H       -0.3466900135    0.0239023052   -0.3393383729
H       -2.3921708781   -0.3900231537    3.4361001153
H       -4.6145079959   -4.0390193894    3.8347800555
H       -4.7094881093   -3.0223938768    2.3812541047
H       -4.4117735411   -2.2751191183    3.9609887083
H       -2.3578760299   -4.3755098177    5.0207360881
H       -2.1619760917   -2.6103763459    5.1415757664
H       -0.8957965617   -3.5927611652    4.3840347232
H       -1.1197413818    2.0841417708   -0.0434092859
H       -0.9464065805    3.1963828761    1.3224275065
H       -1.4705913326   -4.8068990171    0.4239144430
H        2.3296781658    1.5849521591    1.8498129417
30   
torsion grid (15,)
C       -0.8146547287   -2.0873041241    0.4138180582
C       -0.7752470772   -0.7038329472    0.6165170835
C       -2.0998785445   -0.9181244951    2.6508095665
C       -2.1362526052   -2.2942448192    2.4489420706
C       -1.4997799582   -2.8676308294    1.3421151429
C       -1.4094667216   -0.1208560192    1.7211427704
C       -2.4305497585   -4.6615180312    2.4711522157
C       -1.1990963569    1.5956078035    4.2638417499
C       -2.7890885648   -3.3857682431    3.2737090490
C       -4.3211918461   -3.2469267728    3.3383210398
C       -2.1897025901   -3.4984137635    4.6878134716
C       -1.8782601149    1.8882643419    2.9272398791
N       -1.6865368046   -4.2633056548    1.3756986084
O       -2.7411443910   -5.8105679910    2.7458969110
O       -1.7784084534    1.6626418249    5.3293004921
O        0.1249546156    1.3590177103    4.1400863312
O       -1.2999379276    1.2535191162    1.8076605437
H       -0.3185767023   -2.5279613740   -0.4467822991
H       -0.2495471238   -0.0557991940   -0.0779249479
H       -2.6028070381   -0.4922430836    3.5128378967
H       -4.7541487222   -4.1285144551    3.8194066685
H       -4.7519974555   -3.1493417542    2.3372862438
H       -4.5955387324   -2.3590639452    3.9171034688
H       -2.5918720979   -4.3812864000    5.1926976223
H       -2.4412357110   -2.6100911404    5.2762585104
H       -1.0996564035   -3.5861909185    4.6488198871
H       -1.7823991892    2.9623792797    2.7431904147
H       -2.9427430054    1.6579087634    3.0392954902
H       -1.3321883269   -4.9240074883    0.6955602083
H        0.4347125072    1.0254420594    5.0039566963
30   
torsion grid (30,)
C       -0.7991915407   -2.0648812306    0.4210363699
C       -0.7776559943   -0.6806243840    0.6202569538
C       -2.1211975852   -0.9025123467    2.6416482993
C       -2.1381991771   -2.2798536484    2.4439931551
C       -1.4840751845   -2.8499298417    1.3457235168
C       -1.4299287901   -0.1006293078    1.7162211233
C       -2.4072252452   -4.6499605980    2.4703630238
C       -1.2000706188    1.5670627113    4.2591799415
C       -2.7877759241   -3.3758381188    3.2652777993
C       -4.3218545210   -3.2531637051    3.3138214232
C       -2.2018091875   -3.4777980519    4.6858198905
C       -1.8919434558    1.8992986441    2.9373196659
N       -1.6552105129   -4.2475216963    1.3818536646
O       -2.7088162544   -5.8012887620    2.7452345133
O       -1.7723550590    1.6008553410    5.3284335767
O        0.1361615130    1.3880445159    4.1186890964
O       -1.3385479835    1.2745353176    1.7989894506
H       -0.2895528467   -2.5025327296   -0.4331743060
H       -0.2518883007   -0.0288196537   -0.0705717308
H       -2.6424241668   -0.4790497899    3.4939431873
H       -4.7502702248   -4.1381109556    3.7927719945
H       -4.7433350883   -3.1627239099    2.3081743958
H       -4.6115935158   -2.3668527684    3.8874375931
H       -2.6008200889   -4.3625275302    5.1899335256
H       -2.4674111361   -2.5897666261    5.2685034094
H       -1.1106356104   -3.5562571184    4.6581703882
H       -1.7793807970    2.9745380321    2.7700105218
H       -2.9587264482    1.6847903280    3.0588928775
H       -1.2881754065   -4.9062890361    0.7065515091
H        0.4446898564    0.8444298674    4.8673003631
30   
torsion grid (45,)
C       -0.7928852778   -2.0532531043    0.4446512109
C       -0.7850738001   -0.6676889977    0.6354756730
C       -2.1430249975   -0.8914167801    2.6473307191
C       -2.1449075734   -2.2703339813    2.4589584491
C       -1.4767967803   -2.8398584148    1.3689949668
C       -1.4518759454   -0.0876753565    1.7228876921
C       -2.3924586411   -4.6427039949    2.4962518710
C       -1.1893548362    1.5378390136    4.2602191792
C       -2.7917303824   -3.3676943620    3.2806098156
C       -4.3273458959   -3.2587808308    3.3139153533
C       -2.2184949896   -3.4564195635    4.7071479709
C       -1.8981869885    1.9062410923    2.9562579885
N       -1.6351825644   -4.2386439528    1.4117735238
O       -2.6852786308   -5.7952503204    2.7750692507
O       -1.7453033832    1.5654319725    5.3362861454
O        0.1516785390    1.3625455029    4.0972555991
O       -1.3762225450    1.2881030145    1.7991972208
H       -0.2725918296   -2.4912038424   -0.4029524108
H       -0.2594725719   -0.0149944876   -0.0546273458
H       -2.6788841765   -0.4670593946    3.4900880704
H       -4.7521567255   -4.1448724728    3.7939270889
H       -4.7400118045   -3.1779568447    2.3038255948
H       -4.6306118634   -2.3719354954    3.8796338755
H       -2.6143024468   -4.3418441169    5.2125002082
H       -2.4973802918   -2.5676612644    5.2824805713
H       -1.1264181136   -3.5259004267    4.6903815131
H       -1.7668663549    2.9815988408    2.8031141723
H       -2.9671023865    1.7110926659    3.0917128641
H       -1.2568827391   -4.8975167092    0.7428099374
H        0.4496669044    0.6383586014    4.6762597467
30   
torsion grid (60,)
C       -0.7735270021   -2.0323640680    0.4554492256
C       -0.7796970621   -0.6465811680    0.6445444257
C       -2.1554282137   -0.8787781661    2.6433551793
C       -2.1423454282   -2.2581744078    2.4574594800
C       -1.4587792217   -2.8237076675    1.3749363419
C       -1.4622646685   -0.0699641007    1.7242868054
C       -2.3708609479   -4.6323943863    2.4954247293
C       -1.1905672496    1.5185880645    4.2614940788
C       -2.7878229966   -3.3597613624    3.2743900886
C       -4.3244731714   -3.2631416478    3.2938013420
C       -2.2266637573   -3.4419819656    4.7061940739
C       -1.9046219755    1.9179461319    2.9685760144
N       -1.6052388537   -4.2235510960    1.4183001937
O       -2.6576058557   -5.7867753927    2.7722422938
O       -1.7414669434    1.5321386145    5.3380433619
O        0.1557135531    1.3342260464    4.0922097264
O       -1.3990531456    1.3058936183    1.8000682003
H       -0.2414574208   -2.4668941420   -0.3865868990
H       -0.2531166817    0.0096778981   -0.0413901151
H       -2.7070169425   -0.4574010483    3.4774148288
H       -4.7462805552   -4.1523033326    3.7707171925
H       -4.7287550197   -3.1864498819    2.2800168948
H       -4.6399809204   -2.3784511383    3.8561585312
H       -2.6212078322   -4.3289557426    5.2097628320
H       -2.5161321649   -2.5539947320    5.2774309496
H       -1.1340383450   -3.5050524235    4.6994479996
H       -1.7556181727    2.9927174051    2.8278796694
H       -2.9760175847    1.7383462387    3.1065962323
H       -1.2161706427   -4.8800292335    0.7531366944
H        0.4231310107    0.4722365651    4.4553710343
30   
torsion grid (75,)
C       -0.7393884477   -2.0230454541    0.4434721518
C       -0.7645130737   -0.6363317447    0.6239471510
C       -2.1603490300   -0.8737256900    2.6086099095
C       -2.1279458899   -2.2541391934    2.4317238009
C       -1.4251400664   -2.8173738902    1.3602199692
C       -1.4669003006   -0.0614852328    1.6921469703
C       -2.3288065581   -4.6304018601    2.4805271404
C       -1.2164025257    1.5173205531    4.2230519415
C       -2.7697381572   -3.3586204283    3.2475158189
C       -4.3075827410   -3.2799234789    3.2484173127
C       -2.2243354481   -3.4260897039    4.6862116463
C       -1.9276369602    1.9267656518    2.9306539079
N       -1.5548402139   -4.2182559515    1.4101586708
O       -2.6052761535   -5.7864268764    2.7599211065
O       -1.7682362159    1.5313377304    5.2970037418
O        0.1301890737    1.2920634415    4.0613306913
O       -1.4200985460    1.3150795438    1.7617917998
H       -0.1925550561   -2.4559846513   -0.3898626924
H       -0.2382940696    0.0222899828   -0.0599881423
H       -2.7287699154   -0.4537126200    3.4320180930
H       -4.7243191993   -4.1716256073    3.7249855327
H       -4.7009230409   -3.2131630828    2.2296407022
H       -4.6400383729   -2.3963212532    3.8026254690
H       -2.6150827522   -4.3143382638    5.1904269926
H       -2.5298593050   -2.5380602761    5.2488806663
H       -1.1310869449   -3.4775864914    4.6928559304
H       -1.7718406675    3.0009636866    2.7933759145
H       -3.0006497791    1.7519772933    3.0624287404
H       -1.1511684526   -4.8736064875    0.7525850935
H        0.3395061005    0.3507676009    4.1868350632
30   
torsion grid (90,)
C       -0.7314237137   -2.0162831514    0.4581303113
C       -0.7546927303   -0.6298249420    0.6407343788
C       -2.1555419648   -0.8676081522    2.6216644534
C       -2.1251517835   -2.2479002348    2.4429051512
C       -1.4209942809   -2.8108612281    1.3719414028
C       -1.4590061861   -0.0544846260    1.7077245865
C       -2.3300066619   -4.6236141325    2.4881037989
C       -1.2125574413    1.5181105162    4.2449888798
C       -2.7688127761   -3.3523776615    3.2570272367
C       -4.3064322801   -3.2709230071    3.2595602105
C       -2.2217540209   -3.4226307400    4.6951706495
C       -1.9176297655    1.9341076774    2.9499052526
N       -1.5528110396   -4.2111035740    1.4196158637
O       -2.6096926383   -5.7793763965    2.7642312508
O       -1.7648088791    1.5531412266    5.3167896731
O        0.1210441178    1.2108016200    4.0931713167
O       -1.4076752136    1.3217306567    1.7811599864
H       -0.1830107572   -2.4487972547   -0.3743555520
H       -0.2257381108    0.0287643894   -0.0411007687
H       -2.7250441579   -0.4477898028    3.4444898914
H       -4.7239760490   -4.1627669721    3.7350662947
H       -4.7009136029   -3.2018495425    2.2413769356
H       -4.6368748040   -2.3878774312    3.8158297181
H       -2.6141948495   -4.3104878579    5.1986838311
H       -2.5243784421   -2.5345472909    5.2592279729
H       -1.1286552047   -3.4766891788    4.7008699313
H       -1.7543867079    3.0074422401    2.8156970367
H       -2.9924821144    1.7651747211    3.0735995689
H       -1.1488583292   -4.8662221708    0.7619380034
H        0.2439453640    0.2530633373    3.9745459709
30   
torsion grid (105,)
C       -0.7121584295   -2.0131530549    0.4453228285
C       -0.7392797299   -0.6269793064    0.6284908986
C       -2.1481941125   -0.8708270981    2.6039833749
C       -2.1140144617   -2.2507601921    2.4235651631
C       -1.4041400428   -2.8108416845    1.3547668281
C       -1.4499007737   -0.0549419099    1.6933964579
C       -2.3122273094   -4.6266474477    2.4659487110
C       -1.2690280454    1.5558680610    4.2396484275
C       -2.7567119820   -3.3575605416    3.2349920484
C       -4.2945716369   -3.2802458948    3.2337485626
C       -2.2126582021   -3.4273176439    4.6744021605
C       -1.9505513111    1.9369315763    2.9196557740
N       -1.5321467476   -4.2109240243    1.4001872291
O       -2.5897060117   -5.7833166180    2.7393172193
O       -1.8436799994    1.6278497667    5.2976078323
O        0.0510812997    1.1887871081    4.1327033139
O       -1.3982259115    1.3216945150    1.7706166474
H       -0.1591859103   -2.4433731574   -0.3852654598
H       -0.2098750455    0.0335653775   -0.0511463804
H       -2.7200987935   -0.4535772271    3.4264815534
H       -4.7106099857   -4.1737761990    3.7073413190
H       -4.6869871721   -3.2112349762    2.2147585296
H       -4.6287793943   -2.3988826452    3.7904016120
H       -2.6027960477   -4.3175140111    5.1755119891
H       -2.5203150251   -2.5413315803    5.2389223210
H       -1.1194244332   -3.4764022465    4.6829188467
H       -1.8079178574    3.0116189795    2.7753337437
H       -3.0240999401    1.7452186093    3.0171739480
H       -1.1238204154   -4.8642303789    0.7433641380
H        0.1257978976    0.2771544878    3.7982939066
30   
torsion grid (120,)
C       -0.7002872988   -2.0191074821    0.4382154880
C       -0.7167264343   -0.6338341085    0.6298166716
C       -2.1264912259   -0.8774793683    2.6056658043
C       -2.1042518718   -2.2558966480    2.4156937041
C       -1.3997381225   -2.8157507611    1.3426711645
C       -1.4222488806   -0.0629458310    1.6986471681
C       -2.3203768706   -4.6300492465    2.4452907761
C       -1.2838609855    1.5878421139    4.2545953386
C       -2.7524968178   -3.3623210422    3.2230956745
C       -4.2896051593   -3.2732839404    3.2296429547
C       -2.2018328791   -3.4441022477    4.6595976372
C       -1.9474262218    1.9326989946    2.9146234753
N       -1.5389060770   -4.2144342022    1.3799750775
O       -2.6065559387   -5.7860429875    2.7116460472
O       -1.8802267593    1.6758131332    5.3000117782
O        0.0290986554    1.2064243406    4.1870937094
O       -1.3553771617    1.3145509607    1.7853397933
H       -0.1510746096   -2.4487640355   -0.3951164568
H       -0.1840002981    0.0265282082   -0.0474659274
H       -2.6877495431   -0.4609706466    3.4357481398
H       -4.7100409931   -4.1662538729    3.7003478608
H       -4.6865881439   -3.1957237515    2.2130149652
H       -4.6143538270   -2.3926008241    3.7928974218
H       -2.5965045239   -4.3341362387    5.1574255097
H       -2.4999643814   -2.5589032471    5.2302882240
H       -1.1090438695   -3.5008039711    4.6625698640
H       -1.8262269201    3.0080403006    2.7579398593
H       -3.0175015367    1.7161394891    2.9913535691
H       -1.1352032960   -4.8674065953    0.7199300585
H        0.1191266364    0.3970556681    3.6519212793
30   
torsion grid (135,)
C       -0.7185625034   -2.0918768910    0.4335505911
C       -0.6822448663   -0.7087457135    0.6417179549
C       -2.0497286883   -0.9278482204    2.6502697616
C       -2.0845990628   -2.3023743456    2.4404194999
C       -1.4257150517   -2.8736777855    1.3441337487
C       -1.3390133961   -0.1306547497    1.7352967975
C       -2.3884142250   -4.6674022270    2.4451280371
C       -1.3409564609    1.6648765639    4.2725838798
C       -2.7577057458   -3.3947642727    3.2468100831
C       -4.2903507654   -3.2482378801    3.2806404936
C       -2.1870762062   -3.5153772410    4.6723948589
C       -1.9334893665    1.8986543903    2.8771804701
N       -1.6174109787   -4.2663310453    1.3666657163
O       -2.7091517414   -5.8160591056    2.7042680978
O       -2.0195571871    1.6123712689    5.2700935308
O        0.0132788009    1.5083049995    4.3021004542
O       -1.2080549372    1.2475653387    1.8434378759
H       -0.2075132340   -2.5298725672   -0.4194400759
H       -0.1470194573   -0.0586346956   -0.0436523659
H       -2.5644103929   -0.5032631518    3.5056228825
H       -4.7363964602   -4.1303554196    3.7483200320
H       -4.7010557598   -3.1435273637    2.2718769187
H       -4.5716797001   -2.3627475900    3.8594581594
H       -2.6052071338   -4.3976205071    5.1649672563
H       -2.4440843483   -2.6277826638    5.2589895448
H       -1.0971392990   -3.6101682749    4.6560287402
H       -1.8633480276    2.9676878917    2.6583252365
H       -2.9879611963    1.6100518093    2.8864669156
H       -1.2526515345   -4.9249643669    0.6898395414
H        0.2864095778    0.9113509500    3.5819038354
30   
torsion grid (150,)
C       -0.7158327675   -2.0731759378    0.4120508740
C       -0.6498843584   -0.6960237635    0.6533591328
C       -1.9980828532   -0.9388014218    2.6726839339
C       -2.0664186036   -2.3058451789    2.4282331707
C       -1.4305009504   -2.8620405240    1.3101928746
C       -1.2819008527   -0.1356226274    1.7687572247
C       -2.4164330866   -4.6636007463    2.3778518082
C       -1.4443073490    1.7394568411    4.3065088111
C       -2.7509494882   -3.4048801460    3.2157323275
C       -4.2796963980   -3.2298495123    3.2748904469
C       -2.1634888463   -3.5724515921    4.6299098638
C       -1.9499967032    1.8982691367    2.8676602290
N       -1.6504972043   -4.2504482838    1.3001580904
O       -2.7564177082   -5.8121121241    2.6117261682
O       -2.1808215633    1.7052801402    5.2640444177
O       -0.0976144196    1.6153006956    4.4172896076
O       -1.1163743213    1.2383685178    1.9195060932
H       -0.2232749937   -2.5002792135   -0.4571648765
H       -0.1100938198   -0.0395104804   -0.0222397337
H       -2.4875107510   -0.5243144556    3.5480080960
H       -4.7364670030   -4.1146540620    3.7268631717
H       -4.7020820158   -3.0922612767    2.2749067596
H       -4.5357146979   -2.3537964618    3.8792272951
H       -2.5919236405   -4.4588099159    5.1059855201
H       -2.3958524587   -2.6953464986    5.2419897376
H       -1.0758934446   -3.6869910965    4.5959270211
H       -1.9119021153    2.9603967600    2.6100670423
H       -2.9863546466    1.5571848625    2.8122241047
H       -1.3049558326   -4.8992802911    0.6040515419
H        0.2416044814    1.2013907449    3.6004059532
30   
torsion grid (165,)
C       -0.7154553276   -2.0713625299    0.4130182803
C       -0.6336867625   -0.6986593993    0.6757541761
C       -1.9667103115   -0.9605899869    2.7021376277
C       -2.0526027390   -2.3222830180    2.4364043283
C       -1.4312398560   -2.8668464191    1.3041108840
C       -1.2501627552   -0.1506773861    1.8050477248
C       -2.4245073870   -4.6759641700    2.3525870625
C       -1.4721070863    1.7593441688    4.3519898294
C       -2.7420781143   -3.4270184191    3.2115395993
C       -4.2690274277   -3.2390859756    3.2809708256
C       -2.1491964773   -3.6212270267    4.6198157613
C       -1.9359044675    1.8834980914    2.8957691724
N       -1.6653390401   -4.2524682327    1.2740448315
O       -2.7710849259   -5.8251737565    2.5726576751
O       -2.2269941999    1.8693787261    5.2899266439
O       -0.1497099507    1.5209199974    4.5046493212
O       -1.0677943743    1.2195032593    1.9814343446
H       -0.2344540485   -2.4896551995   -0.4668720461
H       -0.0927230767   -0.0369095708    0.0062635980
H       -2.4412179618   -0.5544522111    3.5897698922
H       -4.7315653124   -4.1260572672    3.7227177920
H       -4.6951256862   -3.0834965543    2.2852093718
H       -4.5141213743   -2.3694168363    3.8989198546
H       -2.5819387249   -4.5118143916    5.0839038872
H       -2.3722937810   -2.7523711458    5.2469470043
H       -1.0626502783   -3.7429390569    4.5788196209
H       -1.9074015124    2.9422059123    2.6232251725
H       -2.9663421701    1.5293944612    2.8176412122
H       -1.3301909050   -4.8937381663    0.5659429093
H        0.2082252328    1.2349019207    3.6406305754
30   
torsion grid (180,)
C       -0.7317584389   -1.9888794678    0.3603517978
C       -0.6334886146   -0.6227665387    0.6511851644
C       -1.9548149198   -0.9136712429    2.6808178245
C       -2.0585745303   -2.2681170547    2.3872334594
C       -1.4507329056   -2.7949557320    1.2389826489
C       -1.2364525937   -0.0925342571    1.7957597251
C       -2.4560498892   -4.6152089275    2.2557402986
C       -1.4673864806    1.8323281931    4.3669615368
C       -2.7544890633   -3.3818223795    3.1435734561
C       -4.2789082115   -3.1797522136    3.2276467425
C       -2.1542789363   -3.6130182272    4.5431113963
C       -1.9173195942    1.9355031059    2.9050983834
N       -1.7002889289   -4.1769774233    1.1808596830
O       -2.8131501545   -5.7651735890    2.4539734223
O       -2.1993277253    2.1042714597    5.2900386931
O       -0.1827819407    1.4536323782    4.5429429908
O       -1.0397107130    1.2718877524    2.0002228601
H       -0.2610467462   -2.3937352744   -0.5313001698
H       -0.0900972777    0.0471952230   -0.0080879631
H       -2.4149149720   -0.5211276386    3.5820847359
H       -4.7479443907   -4.0720944540    3.6513755989
H       -4.7097710095   -2.9961256895    2.2387404621
H       -4.5110255056   -2.3225252964    3.8676380029
H       -2.5911812907   -4.5106538341    4.9893958736
H       -2.3665640205   -2.7572427612    5.1916430511
H       -1.0690138357   -3.7419925612    4.4923538632
H       -1.8968009738    2.9928297473    2.6272020275
H       -2.9459469052    1.5764808648    2.8221928626
H       -1.3763425891   -4.8066728843    0.4573079141
H        0.2070023334    1.2873935539    3.6611359925
