17   
torsion grid (-165,)
C        0.9412683970    0.2278975267    2.7126926930
C        0.3561400942    0.8931167580    3.7409191564
C        0.0124563182    0.3806823701    1.6236229261
C        1.2162107250   -1.2172099597   -0.1001684940
C       -1.0897200198   -0.0926144576   -0.6413565565
C       -0.0362277629    0.9486960024   -0.8665186868
C        0.1614379544   -0.1106093244    0.2294808302
N       -1.0434863784    1.0862902054    2.0004226172
O        1.9393666851   -1.6200691519    0.8529189648
O        1.2256254226   -1.5796789445   -1.3064185745
O       -0.8315019460    1.4246468919    3.3601546368
H        1.8580761806   -0.3377781847    2.6575137395
H        0.6371021358    1.0685415435    4.7723669015
H       -2.0160970949    0.2145680185   -0.1648824430
H       -1.1396601613   -0.9030836944   -1.3605253674
H        0.6078726727    0.8313342339   -1.7318954146
H       -0.2414496281    1.9613697571   -0.5288352037
17   
torsion grid (-150,)
C        0.9775156495    0.3637675275    2.6396859974
C        0.3777610579    0.8902615189    3.7368514612
C       -0.0608795732    0.3544374665    1.6433893089
C        1.0680700572   -1.2238411058   -0.1226679819
C       -1.1688752466    0.0458912849   -0.6503979989
C       -0.0532899973    1.0368494802   -0.8187422346
C        0.0632411535   -0.0777504412    0.2299561901
N       -1.1912415353    0.8357218379    2.1340100809
O        1.7755962921   -1.6597747838    0.8266762626
O        1.0605460992   -1.5695937582   -1.3336651101
O       -0.9202285386    1.1898742737    3.4807814446
H        1.9718175938   -0.0307132231    2.5031462752
H        0.7145697212    1.0964865877    4.7456147762
H       -2.0863453696    0.3844374539   -0.1788981618
H       -1.2518774806   -0.7287160357   -1.4050465914
H        0.5965899901    0.9217219349   -1.6805263094
H       -0.2078405251    2.0475749790   -0.4479748250
17   
torsion grid (-135,)
C        0.9644149310    0.5403910105    2.5519900409
C        0.3455284295    0.9161737394    3.6986895132
C       -0.1111165302    0.3662060237    1.6132152804
C        0.9850238962   -1.2156495378   -0.1434952750
C       -1.1879899371    0.1549919727   -0.7070491711
C       -0.0247613341    1.1014291293   -0.8379212677
C        0.0178879201   -0.0308063265    0.1914690099
N       -1.2796044085    0.6089420657    2.1799683966
O        1.6715410603   -1.6534857244    0.8191929242
O        0.9744916557   -1.5759416146   -1.3499846283
O       -0.9990398743    0.9733970103    3.5233626996
H        2.0068897554    0.3408813328    2.3603277490
H        0.6977660852    1.1526469850    4.6954515336
H       -2.1010851934    0.5264641987   -0.2520994306
H       -1.2913284196   -0.6018025285   -1.4771333177
H        0.6363859367    0.9714891624   -1.6892383920
H       -0.1459475457    2.1154512275   -0.4624724973
17   
torsion grid (-120,)
C        0.9485629408    0.7357110281    2.5176579336
C        0.3356919406    0.9831937633    3.7014335193
C       -0.1256006555    0.3797248716    1.6313691544
C        0.9278114575   -1.2541531596   -0.0810241802
C       -1.1726077452    0.2046211168   -0.7077246711
C        0.0361922816    1.0983260341   -0.8283362650
C        0.0091612588   -0.0185733898    0.2110049095
N       -1.2861353814    0.4012518164    2.2598616669
O        1.5890061956   -1.6791826967    0.9036560207
O        0.9121415202   -1.6517813769   -1.2754989459
O       -1.0043515541    0.7997326281    3.5938737214
H        2.0006912381    0.7343760198    2.2774484164
H        0.6921518430    1.2690542448    4.6836103786
H       -2.0766613579    0.6224619931   -0.2747088233
H       -1.2985475927   -0.5548711246   -1.4718635541
H        0.7033336962    0.9299111163   -1.6684402988
H       -0.0478545112    2.1238806871   -0.4734580680
17   
torsion grid (-105,)
C        0.9112899682    0.8903026836    2.4771336645
C        0.3310639155    1.0079741002    3.6971182115
C       -0.1278192627    0.3560827525    1.6408161477
C        0.8592087599   -1.3126592196   -0.0661927770
C       -1.1520875812    0.2564490186   -0.7153120774
C        0.1024084059    1.0910749940   -0.8122072664
C        0.0067018177   -0.0269833810    0.2156291193
N       -1.2369960544    0.1627154253    2.3283180312
O        1.4572104148   -1.7882118080    0.9341110159
O        0.8599132535   -1.6904201981   -1.2674839591
O       -0.9564252705    0.5873793327    3.6545160063
H        1.9312773436    1.0938155339    2.1860582897
H        0.6840728258    1.3423426585    4.6651283300
H       -2.0405578775    0.7157056795   -0.2908609945
H       -1.3068900238   -0.4896703009   -1.4874566496
H        0.7695965468    0.8958200598   -1.6465177993
H        0.0615546446    2.1191737828   -0.4562060707
17   
torsion grid (-90,)
C        0.8567581402    1.0047379645    2.4294693237
C        0.3365227224    1.0048926695    3.6827840444
C       -0.1125753130    0.2934713993    1.6427832952
C        0.7884589997   -1.4026537843   -0.0923029839
C       -1.1205514664    0.2938213547   -0.7235275007
C        0.1803222253    1.0578573974   -0.7935622789
C        0.0144200208   -0.0700955860    0.2108035788
N       -1.1279525336   -0.1008145771    2.3868901008
O        1.3380751724   -1.9407999139    0.9018973267
O        0.7824386723   -1.7451851499   -1.3047067286
O       -0.8517322902    0.3587347982    3.7017318112
H        1.8001915810    1.4048405245    2.0864233915
H        0.6759140615    1.3944085260    4.6349548783
H       -1.9863757616    0.7950464834   -0.2983435180
H       -1.3105716049   -0.4283141453   -1.5107065107
H        0.8404171056    0.8414323797   -1.6281649070
H        0.1925834042    2.0810025849   -0.4208782901
17   
torsion grid (-75,)
C        0.7335910331    1.1838375259    2.4396315847
C        0.2886201195    1.0983939646    3.7199089108
C       -0.1301584006    0.3027205491    1.7022577442
C        0.6583367843   -1.4262970834   -0.0790766228
C       -1.1366358765    0.4055631343   -0.6573793333
C        0.2108538930    1.0825297239   -0.7217568526
C       -0.0195519973   -0.0482694179    0.2648127967
N       -1.0159603738   -0.2634664164    2.4998617199
O        1.2054943202   -2.0133287678    0.8861578819
O        0.5947848026   -1.7424771225   -1.2977212984
O       -0.7595744597    0.2497498414    3.7973425548
H        1.5671279618    1.7512865366    2.0503179956
H        0.6006102076    1.5496975312    4.6539738036
H       -1.9641903245    0.9574543826   -0.2178328725
H       -1.3779560467   -0.2920048693   -1.4526580038
H        0.8497024035    0.8396272292   -1.5653510165
H        0.2898134247    2.0980068796   -0.3361941298
17   
torsion grid (-60,)
C        0.6317565093    1.2327503069    2.4209263027
C        0.2603556905    1.0687545955    3.7176913355
C       -0.0649163487    0.1909138236    1.7141994905
C        0.6105571040   -1.5367486019   -0.1459145515
C       -1.0707161232    0.4251259320   -0.6260488198
C        0.3163484339    1.0114873976   -0.6916499555
C        0.0293444215   -0.1306480218    0.2676875572
N       -0.7875544136   -0.5360234940    2.5463409630
O        1.1775072964   -2.1807852822    0.7680402790
O        0.4661912901   -1.8093771026   -1.3691677203
O       -0.5911624100    0.0283973637    3.8326263503
H        1.3188773852    1.9571266502    2.0071307109
H        0.5107788623    1.5802179803    4.6392307625
H       -1.8520939857    1.0197237922   -0.1575901217
H       -1.3694800671   -0.2358970616   -1.4329273881
H        0.9260677551    0.7508663195   -1.5510420700
H        0.4657809132    2.0110533270   -0.2867173835
17   
torsion grid (-45,)
C        0.4761780971    1.3397584957    2.3790748730
C        0.1869514293    1.1411597119    3.6917856557
C       -0.0038785779    0.1511222586    1.7205415047
C        0.5309022969   -1.5984086163   -0.1929716033
C       -1.0180244666    0.4916352099   -0.5883405302
C        0.4085948487    0.9610554177   -0.6880981710
C        0.0589071869   -0.1665172354    0.2706264063
N       -0.5299472325   -0.6856421272    2.5969078091
O        1.1516956567   -2.2721511356    0.6611788204
O        0.2682455745   -1.8553050065   -1.4007314634
O       -0.4188665753   -0.0507168466    3.8622313969
H        0.9772160611    2.1862682619    1.9320556362
H        0.3527930166    1.7236681060    4.5900704959
H       -1.7327813048    1.1437801604   -0.0903392390
H       -1.3936456536   -0.1369788387   -1.3890157181
H        0.9699355616    0.6551190164   -1.5650953286
H        0.6563247096    1.9427534933   -0.2895380409
17   
torsion grid (-30,)
C        0.2882740535    1.3845884945    2.3308325226
C        0.1018191512    1.1673094007    3.6582428321
C        0.0575501807    0.0978826654    1.7174454582
C        0.4464358983   -1.6574112614   -0.2451101585
C       -0.9470490018    0.5592580460   -0.5617997953
C        0.5121053932    0.8994529566   -0.6844005240
C        0.0819495365   -0.2125914410    0.2648527760
N       -0.2412425769   -0.8061258826    2.6334685514
O        1.1250987444   -2.3583897380    0.5398779573
O        0.0601174258   -1.8967051698   -1.4237944668
O       -0.2191760037   -0.1215169791    3.8816442999
H        0.5594833538    2.3124449533    1.8480174796
H        0.1700985269    1.8014232886    4.5341817305
H       -1.5918217782    1.2615954867   -0.0370900148
H       -1.3921861669   -0.0218420646   -1.3627437153
H        1.0260390248    0.5561035572   -1.5764238538
H        0.8675698550    1.8430359959   -0.2763417318
17   
torsion grid (-15,)
C        0.1099889753    1.4183631771    2.2698960628
C        0.0736795762    1.1856586522    3.6060433421
C        0.0726399017    0.1024887615    1.6697948602
C        0.2787716977   -1.6206302067   -0.3648920555
C       -0.9356929594    0.7080660380   -0.5713957784
C        0.5417685011    0.9359674436   -0.7072465119
C        0.0374153953   -0.1774800992    0.2105746303
N        0.0191132723   -0.8321139976    2.6028499452
O        0.9171303330   -2.4067172649    0.3710349721
O       -0.1546191092   -1.7798295034   -1.5416992399
O        0.0160030915   -0.1368657959    3.8506236196
H        0.1557653176    2.3755853621    1.7698940743
H        0.0883217138    1.8332975794    4.4747328673
H       -1.5207832302    1.4356808559   -0.0127204570
H       -1.4326508189    0.1916123904   -1.3857289296
H        1.0138076439    0.5867130298   -1.6198839663
H        0.9853065403    1.8232667343   -0.2606388532
17   
torsion grid (0,)
C       -0.0349789682    1.3928477072    2.2751110248
C        0.0869831601    1.2030561203    3.6121284725
C        0.1136593378    0.0706515660    1.7013068762
C        0.2204926601   -1.6710518360   -0.3441838114
C       -0.8930857006    0.6822815292   -0.5536993675
C        0.5860620677    0.8962212396   -0.6586412781
C        0.0533285743   -0.2234854535    0.2429069081
N        0.3100701749   -0.8282587512    2.6518093890
O        0.4066481963   -2.5960911934    0.4770398516
O        0.1414714050   -1.7115897261   -1.6065431019
O        0.2933405866   -0.0978643400    3.8849531339
H       -0.2054038281    2.3260988313    1.7570074821
H        0.0516730328    1.8730193248    4.4633250396
H       -1.4926470790    1.4053246264   -0.0050642471
H       -1.3755659966    0.1854949643   -1.3884589284
H        1.0691236966    0.5384239582   -1.5614327714
H        1.0268581170    1.7701155244   -0.1841360319
17   
torsion grid (15,)
C       -0.1820014051    1.3774706853    2.2909821130
C        0.1022787046    1.1911911682    3.6044567894
C        0.1409704647    0.1134858047    1.6655932725
C        0.1496412503   -1.6383998240   -0.3547545812
C       -0.8663784337    0.7335327442   -0.6073714254
C        0.6195707541    0.9331635982   -0.6809012445
C        0.0522646370   -0.1743693309    0.2101824147
N        0.5830694806   -0.7495876051    2.5636910116
O       -0.1355302108   -2.5571972187    0.4461922175
O        0.4450474431   -1.6928983668   -1.5826731086
O        0.5626995712   -0.0565914863    3.8125298614
H       -0.5636212815    2.2729785888    1.8210801688
H        0.0260911829    1.8258454519    4.4794891491
H       -1.4761006972    1.4686898508   -0.0865425883
H       -1.3422957152    0.2471706793   -1.4527523879
H        1.1247378561    0.5610697583   -1.5658863639
H        1.0477051220    1.8069848670   -0.1940719056
17   
torsion grid (30,)
C       -1.2983222479    0.4975106751    2.3283234235
C       -0.9962552115    0.5366375565    3.6516732505
C       -0.0970786336    0.0036142592    1.6973459478
C        1.1483647772   -1.2623110507   -0.2854169464
C       -1.0519774660    0.0525874034   -0.6908362820
C        0.0186457072    1.1022304676   -0.5822079695
C        0.1312943324   -0.1812405012    0.2410664668
N        0.8391118953   -0.2298180325    2.5999472072
O        1.5392012536   -1.0629564802   -1.4700625841
O        1.3888169750   -2.2116379699    0.4949932151
O        0.2669743480    0.1169028396    3.8567657953
H       -2.2337502641    0.7664818521    1.8590548621
H       -1.5557848631    0.8178171958    4.5359219510
H       -2.0331937364    0.2570439672   -0.2682357900
H       -1.0498478929   -0.5640392098   -1.5838529303
H        0.7360036314    1.1682891353   -1.3936183798
H       -0.2211815059    2.0222622264   -0.0526941596
17   
torsion grid (45,)
C       -1.3600796944    0.3151889272    2.3767336449
C       -1.0189394246    0.4515783842    3.6849109187
C       -0.1085826392    0.0846553572    1.7002939305
C        1.0547217949   -1.3020940272   -0.2315491194
C       -1.0481231826    0.1724948900   -0.6949744108
C        0.1137381958    1.1257437267   -0.6109061916
C        0.1052167441   -0.1370131770    0.2469080540
N        0.8921386163    0.0797634155    2.5625166985
O        1.3951721446   -1.2165573572   -1.4442011858
O        1.3029836006   -2.1883128175    0.6180629006
O        0.3142874421    0.3245017688    3.8364223130
H       -2.3494958408    0.3458402260    1.9436442520
H       -1.5869297942    0.6228667555    4.5914372389
H       -2.0040319921    0.4884679415   -0.2822928376
H       -1.1026485811   -0.4646159878   -1.5718710036
H        0.8339369973    1.1073909403   -1.4222533810
H       -0.0471048258    2.0780863369   -0.1095297500
17   
torsion grid (60,)
C       -1.3517680243    0.1261582337    2.4184312692
C       -0.9960614586    0.3508846395    3.7105099721
C       -0.1090056317    0.1573642901    1.6940930266
C        0.9610021507   -1.3366430495   -0.1831910960
C       -1.0409909639    0.2772299928   -0.6983557950
C        0.1980081373    1.1344096333   -0.6499187549
C        0.0910745096   -0.0930414983    0.2442552198
N        0.9036317738    0.3773862682    2.5121716624
O        1.2502015129   -1.3597625108   -1.4109264804
O        1.2146485674   -2.1613284310    0.7262654107
O        0.3400482385    0.5127099093    3.8066945185
H       -2.3372171832   -0.0660355638    2.0183814047
H       -1.5490372821    0.4125547929    4.6400046894
H       -1.9591203729    0.6860836463   -0.2796439776
H       -1.1599431216   -0.3764909744   -1.5566835541
H        0.9043943499    1.0336044226   -1.4673098677
H        0.1211902281    2.1122068632   -0.1792317922
17   
torsion grid (75,)
C       -1.3646858539    0.0138468584    2.4378971005
C       -1.0360284406    0.3424725211    3.7139764850
C       -0.1684840019    0.2718219076    1.6837916397
C        0.8434396547   -1.3181916192   -0.1139816173
C       -1.0445370862    0.4036146403   -0.7277776669
C        0.2494128244    1.1792556186   -0.6814921661
C        0.0482103458   -0.0079336682    0.2427217225
N        0.7954439643    0.7153899406    2.4683483756
O        1.1282794804   -1.4315819762   -1.3367332848
O        1.0591857857   -2.0962398034    0.8471874676
O        0.2432410623    0.7723278527    3.7738714976
H       -2.2957834490   -0.3856505292    2.0613493348
H       -1.5711065277    0.3202278003    4.6556174122
H       -1.9386719283    0.8804031750   -0.3287201526
H       -1.1937301023   -0.2652999678   -1.5698399579
H        0.9562514041    1.0104202589   -1.4872039622
H        0.2328130433    2.1732612660   -0.2406598787
17   
torsion grid (90,)
C       -1.2909149682   -0.1780607494    2.4440981261
C       -0.9977653933    0.2604691249    3.6943614363
C       -0.1833950568    0.2654138309    1.6432805577
C        0.7501328851   -1.3960112080   -0.1081604669
C       -1.0154614391    0.4328501254   -0.7831916756
C        0.3253620046    1.1255313838   -0.7261215221
C        0.0378881675   -0.0322024706    0.2076594089
N        0.7003956726    0.9135253556    2.3775274954
O        1.0292681382   -1.5705156749   -1.3241916632
O        0.9225131818   -2.1512958555    0.8818173323
O        0.1820048554    0.9224490720    3.6990131739
H       -2.1365001031   -0.7629095937    2.1112677642
H       -1.4951955911    0.1785156725    4.6531812337
H       -1.8830671935    0.9673074612   -0.3990030038
H       -1.1948775013   -0.2376268149   -1.6183175700
H        1.0290231874    0.9036434210   -1.5215959459
H        0.3672841112    2.1234534559   -0.2972230911
17   
torsion grid (105,)
C       -1.2138165368   -0.2926434856    2.4713192876
C       -0.9851696845    0.2602702072    3.6881954952
C       -0.2179481326    0.2987592502    1.6209704042
C        0.6381826892   -1.4282477100   -0.0982686208
C       -0.9960218761    0.4990719172   -0.8216656106
C        0.3820009686    1.1110945246   -0.7435906673
C        0.0131688712   -0.0195898387    0.1922605161
N        0.5492110716    1.1316397822    2.2978292110
O        0.9405951830   -1.6312261337   -1.3037162623
O        0.7326382283   -2.1880870916    0.9007427837
O        0.0582716398    1.1229608896    3.6307202777
H       -1.9364380067   -1.0445633493    2.1902631424
H       -1.4431995380    0.1416340582    4.6626661743
H       -1.8371743951    1.0841939863   -0.4535577187
H       -1.2001341202   -0.1685185731   -1.6535328899
H        1.0842096076    0.8422294952   -1.5255518260
H        0.4760193333    2.1073214939   -0.3203148288
17   
torsion grid (120,)
C       -1.1028963578   -0.4070970550    2.5095038896
C       -0.9667861793    0.2426482515    3.6916602407
C       -0.2389587751    0.3097107683    1.6118036102
C        0.5524743699   -1.4548031242   -0.1122108052
C       -0.9667823481    0.5584360116   -0.8378042719
C        0.4369132327    1.1005693063   -0.7367284613
C        0.0055617266   -0.0171288154    0.1878493319
N        0.3732918018    1.3009360340    2.2322759764
O        0.8799840508   -1.6554602062   -1.3112173175
O        0.5707293327   -2.2413952714    0.8718346318
O       -0.0953174683    1.2758013918    3.5730183343
H       -1.6686491597   -1.2961668774    2.2767728953
H       -1.3854731360    0.0943202974    4.6796553663
H       -1.7827728347    1.1786364812   -0.4713890221
H       -1.1934835851   -0.0950440636   -1.6749285670
H        1.1349113726    0.8004911719   -1.5108997874
H        0.5742125252    2.0877382593   -0.3053667738
17   
torsion grid (135,)
C       -0.9363752011   -0.5219855180    2.5367643266
C       -0.9033688627    0.2015796178    3.6832993519
C       -0.2294080737    0.2937560860    1.5863955686
C        0.4913702827   -1.4775528494   -0.1832141999
C       -0.9366828012    0.6157108085   -0.8535676038
C        0.4871476020    1.0920117011   -0.7454813751
C        0.0129719697   -0.0268422441    0.1601813279
N        0.1997506967    1.4107089304    2.1465563698
O        0.7826579898   -1.6604123418   -1.3945194786
O        0.5069737130   -2.2929036031    0.7784286362
O       -0.2358232149    1.3685103340    3.4972411578
H       -1.3288675419   -1.5093559235    2.3514480972
H       -1.2746309524    0.0301556343    4.6864352377
H       -1.7226216369    1.2602097939   -0.4651544626
H       -1.1944781207   -0.0117682132   -1.7012805444
H        1.1691972933    0.7742575715   -1.5266752269
H        0.6692581182    2.0618592976   -0.2928318463
17   
torsion grid (150,)
C       -0.8322722745   -0.5708108894    2.6081451305
C       -0.9278883258    0.2200963963    3.7063043151
C       -0.2799292940    0.2943647086    1.5994904185
C        0.3958836311   -1.5140304580   -0.1777538425
C       -0.8987479338    0.6594410289   -0.8524150294
C        0.5436216373    1.0524222183   -0.7096843254
C       -0.0117960003   -0.0467229557    0.1809379283
N       -0.0590759997    1.5050772347    2.0845538772
O        0.6631297910   -1.6975561793   -1.3947210422
O        0.3965994597   -2.3436719281    0.7728066099
O       -0.4784567712    1.4719415707    3.4392521992
H       -1.0441289266   -1.6200574359    2.4777319205
H       -1.2642284873    0.0509151611    4.7220954369
H       -1.6537933298    1.3425632778   -0.4700115792
H       -1.1724751175    0.0527447066   -1.7099234952
H        1.2246168955    0.6979947532   -1.4758056597
H        0.7691633888    2.0056730659   -0.2416574413
17   
torsion grid (165,)
C        0.7511794918    0.0068621584    2.7733013698
C        0.2849630288    0.8088012702    3.7640921757
C        0.1639326387    0.5508124783    1.5768857514
C        1.4420771161   -0.9620261192   -0.1698487711
C       -1.0301007509   -0.1966668371   -0.5543844933
C       -0.1641066639    0.9664336891   -0.9307442105
C        0.2944564309    0.0380233882    0.1886630742
N       -0.5906307562    1.6024620079    1.8589383531
O        2.1947587727   -1.3301780228    0.7743958349
O        1.4766862053   -1.2963266254   -1.3837553632
O       -0.5232550670    1.7755139733    3.2638309222
H        1.4323878919   -0.8293170368    2.7920890870
H        0.4340382923    0.8333872827    4.8368348518
H       -1.9406196867    0.0064774307    0.0036629170
H       -1.0319786262   -1.0557673326   -1.2173480644
H        0.4114436425    0.8741113479   -1.8454611991
H       -0.4919080431    1.9604543281   -0.6409070734
17   
torsion grid (180,)
C        0.8405890617    0.1289367739    2.7491489758
C        0.3082263310    0.8664734792    3.7567978277
C        0.0584895338    0.4945288197    1.5971385486
C        1.2927100378   -1.0577080477   -0.1577200400
C       -1.1043483777   -0.1071376309   -0.6024306354
C       -0.1441545928    1.0005883791   -0.9031397819
C        0.1952513410   -0.0042969031    0.2029267495
N       -0.8660416336    1.3874621649    1.9211816161
O        2.0295416780   -1.4660262055    0.7829239966
O        1.3130196581   -1.3861933885   -1.3736700394
O       -0.7142490768    1.6344249253    3.3074317905
H        1.6509387362   -0.5831534716    2.7290090838
H        0.5327727055    0.9593881390    4.8124979972
H       -2.0208140800    0.1429904664   -0.0749904910
H       -1.1358095504   -0.9391055439   -1.2980121500
H        0.4614378500    0.9026901188   -1.7978519669
H       -0.4083768065    2.0037237040   -0.5798331651
