16   
torsion grid (-45,)
C        1.8893203440   -1.0343711476   -0.1445936661
C        2.9439493905   -1.5919487363    0.5920458487
C        0.7934776307   -0.4902741731    0.5402120356
C        2.9060885315   -1.6045451284    1.9877702252
C        0.7501110633   -0.5059253201    1.9356402289
C        1.7997912811   -1.0766426687    2.6849516619
C        1.7787551804   -1.0447079060    4.1529204351
N        2.6179127770   -1.7994307652    4.9111526613
N        0.6223915659   -0.8951058461    4.8519484617
N        2.4469056321   -1.2012727890    6.1172607420
N        1.1375238582   -0.7966328499    6.1360419815
H        1.9240247711   -1.0176551528   -1.2323257225
H        3.8026573849   -2.0144381160    0.0720796224
H       -0.0309121293   -0.0513576166   -0.0200796148
H        3.7213372649   -2.0258474742    2.5690638979
H       -0.0955409164   -0.0878789468    2.4745413835
16   
torsion grid (-30,)
C        1.8845362341   -1.0387453675   -0.1431441355
C        2.9431472815   -1.5894503271    0.5924819944
C        0.7889128378   -0.4974878347    0.5437864059
C        2.9084969542   -1.5986994624    1.9883946322
C        0.7497092539   -0.5077706089    1.9395377224
C        1.8053158327   -1.0678984773    2.6880942230
C        1.7817956560   -1.0484212373    4.1531976321
N        2.6627742907   -1.7319812940    4.9220741141
N        0.6606581141   -0.7875032022    4.8714927360
N        2.3786079418   -1.2821116346    6.1633090972
N        1.1137743312   -0.8133267577    6.1516216897
H        1.9148952409   -1.0273874297   -1.2310608223
H        3.8019484418   -2.0111600034    0.0721053454
H       -0.0396445833   -0.0645620001   -0.0149685541
H        3.7263820281   -2.0182779170    2.5669883021
H       -0.0959050366   -0.0914058710    2.4793322403
16   
torsion grid (-15,)
C        1.8840521884   -1.0383701610   -0.1449747193
C        2.9434824433   -1.5877782997    0.5902551512
C        0.7863223147   -0.5025930362    0.5425010809
C        2.9079444107   -1.6016592988    1.9861569895
C        0.7469119431   -0.5160866190    1.9383144492
C        1.8054994163   -1.0705876724    2.6866095021
C        1.7725834958   -1.0699563274    4.1508900058
N        2.7084189950   -1.6631870212    4.9217043796
N        0.6933862199   -0.7031575554    4.8753857231
N        2.3393397672   -1.3569293560    6.1780631570
N        1.1060050477   -0.8331112181    6.1538460353
H        1.9143526886   -1.0259425218   -1.2328745559
H        3.8034706585   -2.0066777890    0.0696046578
H       -0.0437421395   -0.0713911066   -0.0153343345
H        3.7257621208   -2.0230463425    2.5633276360
H       -0.1003082891   -0.1036196801    2.4783765370
16   
torsion grid (0,)
C        1.8864244515   -1.0367393066   -0.1465983527
C        2.9445637252   -1.5867228560    0.5899805757
C        0.7829475830   -0.5108268621    0.5392885731
C        2.9018942393   -1.6112011235    1.9855136001
C        0.7367879828   -0.5336638496    1.9347360948
C        1.7962522151   -1.0846953113    2.6844165948
C        1.7496582919   -1.1094191521    4.1466051655
N        2.7249727055   -1.6234761603    4.9261134052
N        0.7268081793   -0.6214203764    4.8808180789
N        2.2829398166   -1.4435015018    6.1820353232
N        1.0892712255   -0.8447745962    6.1550448873
H        1.9210920459   -1.0183242186   -1.2342709009
H        3.8085589534   -1.9990574425    0.0707597139
H       -0.0467091458   -0.0802301058   -0.0196002721
H        3.7176110039   -2.0355360043    2.5634728093
H       -0.1144880032   -0.1282332294    2.4736560099
16   
torsion grid (15,)
C        1.8866063138   -1.0339015604   -0.1442771920
C        2.9455864208   -1.5838566707    0.5911757389
C        0.7802957550   -0.5150470522    0.5424361011
C        2.9007392978   -1.6156660899    1.9865110764
C        0.7325141785   -0.5438277469    1.9377468486
C        1.7948871842   -1.0907650438    2.6862699523
C        1.7384915016   -1.1368700424    4.1491325876
N        2.7574606998   -1.5617326509    4.9257945218
N        0.7760954093   -0.5346504228    4.8805190823
N        2.2598363269   -1.5144763113    6.1742061827
N        1.0977387687   -0.8473305226    6.1535731823
H        1.9218053516   -1.0121470153   -1.2318854763
H        3.8111851910   -1.9917502497    0.0710924976
H       -0.0503849695   -0.0855064922   -0.0157553715
H        3.7157678484   -2.0422918582    2.5638009478
H       -0.1207680568   -0.1432398112    2.4772079992
16   
torsion grid (30,)
C        1.8870948851   -1.0340749419   -0.1419582434
C        2.9468749142   -1.5823164067    0.5938357763
C        0.7775149413   -0.5201007492    0.5435251000
C        2.8995193266   -1.6175931473    1.9889356378
C        0.7275740815   -0.5508017767    1.9386090829
C        1.7930360543   -1.0918452029    2.6872734842
C        1.7273504635   -1.1562213663    4.1497667227
N        2.7856245197   -1.4837099141    4.9288079890
N        0.8249597260   -0.4552735944    4.8812920447
N        2.2255741612   -1.5887420166    6.1531558391
N        1.0881406526   -0.8636363311    6.1495911038
H        1.9231518054   -1.0119367048   -1.2295325507
H        3.8139256781   -1.9874504350    0.0739853401
H       -0.0537006241   -0.0930113593   -0.0157639741
H        3.7132482351   -2.0451065537    2.5676146242
H       -0.1277447803   -0.1538457877    2.4777715896
16   
torsion grid (45,)
C        1.8865151108   -1.0404536392   -0.1445266163
C        2.9493799566   -1.5812488786    0.5927817745
C        0.7747737793   -0.5281426228    0.5391668661
C        2.9023741514   -1.6116477096    1.9879556543
C        0.7269256139   -0.5523208650    1.9343294765
C        1.7969449907   -1.0818713114    2.6850861005
C        1.7229339709   -1.1560062827    4.1498341254
N        2.8123109851   -1.4074909836    4.9235839640
N        0.8887146107   -0.3585283423    4.8683430689
N        2.2027460794   -1.6900893709    6.1027010363
N        1.0896218245   -0.8910936444    6.1332699735
H        1.9207300765   -1.0250312687   -1.2322932515
H        3.8170780496   -1.9858486841    0.0735111944
H       -0.0588758836   -0.1080119894   -0.0218238335
H        3.7159563685   -2.0361154783    2.5692772340
H       -0.1298086220   -0.1563659895    2.4724083995
