13   
torsion grid (-165,)
C        0.2045965278   -0.3945601914   -1.0312138181
N        1.5352874331   -0.8923424054   -1.3530980288
C        2.4269009033   -0.0980291586   -2.0201786788
O        2.1662952302    0.9662979110   -2.5608061651
O        3.6638914257   -0.6770733670   -2.0161013675
C        4.6733587033    0.0630265049   -2.7261532601
H       -0.4575386492   -1.2425178224   -0.8384731393
H        0.2048142897    0.2684578753   -0.1563657454
H       -0.1767468047    0.1651662096   -1.8859344905
H        1.9389913809   -1.6108508666   -0.7663906436
H        5.5886933219   -0.5197997810   -2.6184939214
H        4.7994265973    1.0579107430   -2.2921079737
H        4.4061173073    0.1634002228   -3.7809180070
13   
torsion grid (-150,)
C        0.2107598327   -0.4000988579   -1.0568039388
N        1.5212907302   -0.9490526750   -1.4001002419
C        2.4225021326   -0.1216431319   -2.0280071614
O        2.1786053578    0.9920398382   -2.4654189491
O        3.6450535795   -0.7219871983   -2.0904469688
C        4.6690778000    0.0671265346   -2.7234107374
H       -0.4273008126   -1.2147425175   -0.7059511716
H        0.2663195889    0.3778608883   -0.2847004420
H       -0.2371721091    0.0382023401   -1.9494442545
H        1.9345046404   -1.5667372041   -0.7116528055
H        5.5741154492   -0.5388918726   -2.6725401666
H        4.8105710708    1.0128396099   -2.1943446414
H        4.4057604062    0.2741701205   -3.7634137600
13   
torsion grid (-135,)
C        0.2119102240   -0.4123042020   -1.0850971251
N        1.5262605647   -0.9834947119   -1.3958980702
C        2.4258648933   -0.1345173620   -2.0173510297
O        2.1997957575    1.0141395329   -2.3622590743
O        3.6292383067   -0.7538533377   -2.1572034303
C        4.6632359201    0.0646821406   -2.7352088425
H       -0.4162080477   -1.2022271854   -0.6662413971
H        0.2665571258    0.4265617960   -0.3799325979
H       -0.2484476696   -0.0508518411   -2.0055769425
H        1.9375981539   -1.4801541364   -0.6127317345
H        5.5540432432   -0.5637604834   -2.7517793111
H        4.8344262892    0.9573903497   -2.1282854441
H        4.3898129055    0.3674753150   -3.7486702397
13   
torsion grid (-120,)
C        0.2093522752   -0.4303643188   -1.1171024543
N        1.5410409845   -1.0042187609   -1.3643905071
C        2.4375593206   -0.1346295553   -1.9864586364
O        2.2387772733    1.0425121810   -2.2365349933
O        3.6123832532   -0.7740010647   -2.2170689252
C        4.6568169861    0.0587055589   -2.7562884349
H       -0.4129089351   -1.2006171198   -0.6548261604
H        0.2352171551    0.4583587800   -0.4745954313
H       -0.2414095130   -0.1460288173   -2.0692589282
H        1.9334350870   -1.3733388246   -0.5029176218
H        5.5253848718   -0.5930725858   -2.8528472757
H        4.8740118397    0.8914082301   -2.0823093545
H        4.3644270682    0.4543721715   -3.7316365159
13   
torsion grid (-105,)
C        0.2054516401   -0.4530748568   -1.1550029933
N        1.5612627954   -1.0137004099   -1.3121424288
C        2.4594891526   -0.1234757075   -1.9316188381
O        2.3000241710    1.0756433408   -2.0813563219
O        3.5934611236   -0.7825841914   -2.2655813985
C        4.6478974975    0.0511758299   -2.7855094989
H       -0.4151018329   -1.2043330870   -0.6601027521
H        0.1838431698    0.4809636926   -0.5807205395
H       -0.2173999948   -0.2553218842   -2.1419194656
H        1.9148979421   -1.2562425943   -0.3890633973
H        5.4832300280   -0.6232474976   -2.9743568275
H        4.9281132556    0.8172855436   -2.0579127926
H        4.3289187185    0.5359976961   -3.7109479849
13   
torsion grid (-90,)
C        0.2057209422   -0.4801871764   -1.2033675389
N        1.5857797404   -1.0127629950   -1.2342232969
C        2.4955297774   -0.1048877587   -1.8415042480
O        2.3893088097    1.1077587232   -1.8854380256
O        3.5704292252   -0.7809902134   -2.2986309418
C        4.6293349004    0.0446026436   -2.8248436373
H       -0.4243182942   -1.2094985306   -0.6879951896
H        0.1218581783    0.4949333456   -0.7089563512
H       -0.1604786314   -0.3794141714   -2.2275901138
H        1.8778116933   -1.1343564917   -0.2651050835
H        5.4170736579   -0.6485365067   -3.1199305916
H        4.9912252299    0.7382984185   -2.0616694099
H        4.2748124376    0.6141265873   -3.6869808107
13   
torsion grid (-75,)
C        2.0152313509   -1.7455793270   -0.2762117593
N        1.4752888443   -0.7631020604   -1.2362029798
C        2.3906401918   -0.1276883987   -2.0986434974
O        2.0761215931    0.4336163656   -3.1310477781
O        3.6822650170   -0.3468439399   -1.7335304180
C        4.6672589190    0.1084570054   -2.6826066335
H        2.7302879696   -1.3256023599    0.4413594490
H        1.1687952070   -2.1740663384    0.2673903459
H        2.5096709212   -2.5504288537   -0.8228697116
H        0.9592491460   -0.0562236754   -0.7173236474
H        5.6300680563   -0.1899508969   -2.2670090659
H        4.6157998986    1.1938529457   -2.7942260652
H        4.5032640130   -0.3601481443   -3.6557021514
13   
torsion grid (-60,)
C        2.0248943370   -1.7293546669   -0.2454031456
N        1.5020900614   -0.8040941033   -1.2653914818
C        2.4054837872   -0.1148674230   -2.0786909624
O        2.0825131035    0.5648227010   -3.0371248159
O        3.6963407723   -0.4191050342   -1.7752688233
C        4.6707560163    0.0873543257   -2.7083901852
H        2.6668849270   -1.2467800843    0.5016302794
H        1.1691592940   -2.1871257967    0.2578439765
H        2.5984187341   -2.5198003950   -0.7313979915
H        0.8535030805   -0.1486469299   -0.8390662338
H        5.6338543867   -0.2710717606   -2.3440049441
H        4.6489844674    1.1791652003   -2.7289280562
H        4.4710581604   -0.2942037109   -3.7124315284
13   
torsion grid (-45,)
C        2.0248783489   -1.7156733303   -0.2116909264
N        1.5325840216   -0.8324397815   -1.2770179924
C        2.4237435114   -0.1169868826   -2.0632607345
O        2.0922968019    0.6574795937   -2.9460138122
O        3.7118054266   -0.4835164694   -1.8225735145
C        4.6754593543    0.0760658703   -2.7358598211
H        2.6005357254   -1.1892424923    0.5598077884
H        1.1607273163   -2.1976510136    0.2526016972
H        2.6585990903   -2.4906984757   -0.6443267333
H        0.7815592749   -0.2273067703   -0.9624732813
H        5.6382715052   -0.3299006758   -2.4244593160
H        4.6777785264    1.1662608786   -2.6693078180
H        4.4457022245   -0.2200981288   -3.7620494484
13   
torsion grid (-30,)
C        2.0210351673   -1.7021479280   -0.1775622597
N        1.5645631913   -0.8373704367   -1.2673372019
C        2.4407991940   -0.1222334047   -2.0536647675
O        2.1040257147    0.7206851997   -2.8714069284
O        3.7247600760   -0.5359362781   -1.8711889468
C        4.6800558203    0.0685061144   -2.7636106906
H        2.5277270403   -1.1513332330    0.6250621773
H        1.1508453441   -2.2166777534    0.2375467256
H        2.7096242838   -2.4518629934   -0.5689361073
H        0.7289236543   -0.3003103315   -1.0692896788
H        5.6402314812   -0.3782329344   -2.5040896232
H        4.7080572356    1.1508739028   -2.6189128641
H        4.4232929249   -0.1476676016   -3.8032337471
13   
torsion grid (-15,)
C        2.0190205078   -1.6933805903   -0.1507924891
N        1.5935772532   -0.8159802750   -1.2368387701
C        2.4521471713   -0.1229460602   -2.0481075261
O        2.1124269500    0.7566796459   -2.8269626933
O        3.7323708168   -0.5663800421   -1.9063055760
C        4.6836971368    0.0672173843   -2.7817716588
H        2.5022621876   -1.1475398040    0.6693468547
H        1.1396339572   -2.2117736377    0.2388889485
H        2.7193054963   -2.4396079449   -0.5293219258
H        0.6879803758   -0.3717354667   -1.1644469022
H        5.6418529766   -0.4006351979   -2.5536148370
H        4.7256733582    1.1418214398   -2.5894922113
H        4.4139929403   -0.0994471288   -3.8272051259
13   
torsion grid (0,)
C        2.0254234743   -1.7073303001   -0.1576539045
N        1.6177508892   -0.7366290453   -1.1650277959
C        2.4512947034   -0.1119302551   -2.0448697414
O        2.0963840907    0.7023429239   -2.8864755478
O        3.7413529386   -0.5154414923   -1.8635305104
C        4.6884997934    0.0992367379   -2.7561077639
H        2.7338669223   -1.2714116510    0.5537363910
H        1.1364929599   -2.0293133186    0.3890568912
H        2.4911506151   -2.5859387722   -0.6149100450
H        0.6473609266   -0.4735877601   -1.2556837466
H        5.6568337238   -0.3222211231   -2.4844341613
H        4.6917969866    1.1839280203   -2.6255600651
H        4.4457331038   -0.1354116419   -3.7951639126
13   
torsion grid (15,)
C        2.0151008747   -1.7140953534   -0.1692007643
N        1.6237967307   -0.6545084281   -1.0935850908
C        2.4548885287   -0.1083761012   -2.0351918193
O        2.0895373793    0.6342252858   -2.9356517836
O        3.7511117034   -0.4663215964   -1.8174921965
C        4.6953056926    0.1290456532   -2.7268563731
H        2.9107741299   -1.4167094706    0.3784028696
H        1.2049866650   -1.8624100342    0.5488671847
H        2.2180730541   -2.6651914404   -0.6774445576
H        0.6485709264   -0.5821943630   -1.3512774864
H        5.6711141721   -0.2444925809   -2.4149731956
H        4.6608753499    1.2187402207   -2.6573627457
H        4.4798059209   -0.1714194690   -3.7548579536
13   
torsion grid (30,)
C        2.0237205399   -1.6875900944   -0.1646700083
N        1.6058553796   -0.6167623985   -1.0716059441
C        2.4448439371   -0.1006983149   -2.0345687081
O        2.0969609552    0.6827555046   -2.9050903506
O        3.7311337989   -0.5019334508   -1.8409924582
C        4.6882278001    0.1119790784   -2.7249832562
H        2.9112089809   -1.3749591242    0.3867166156
H        1.2170203796   -1.8629323128    0.5514142143
H        2.2514086104   -2.6269310037   -0.6844163104
H        0.6559130286   -0.6902113791   -1.4153565508
H        5.6559262924   -0.2945382672   -2.4297417643
H        4.6753194441    1.1981768218   -2.6088704036
H        4.4664019810   -0.1400627371   -3.7644589879
13   
torsion grid (45,)
C        2.0364175898   -1.6538283302   -0.1568350878
N        1.5758585453   -0.6012442897   -1.0718920191
C        2.4291162538   -0.0883597545   -2.0378716123
O        2.1122721518    0.7639722687   -2.8515350745
O        3.6990436839   -0.5517170421   -1.8830742343
C        4.6771949824    0.0851634595   -2.7277377819
H        2.8838719405   -1.2872781524    0.4235972916
H        1.2198680912   -1.8814761158    0.5331290465
H        2.3411030791   -2.5746550347   -0.6696372088
H        0.6720487309   -0.8121528131   -1.4815357194
H        5.6295924108   -0.3763854457   -2.4656346230
H        4.7042373768    1.1605187762   -2.5368288840
H        4.4433162913   -0.0862652040   -3.7807680053
13   
torsion grid (60,)
C        2.0453909253   -1.6196701861   -0.1480940091
N        1.5385942365   -0.6090604394   -1.0923570570
C        2.4139370367   -0.0697882943   -2.0387027583
O        2.1385139126    0.8637281231   -2.7718966641
O        3.6623153294   -0.6008765060   -1.9365544418
C        4.6653445453    0.0582806702   -2.7341419297
H        2.8478620671   -1.1872884887    0.4510819117
H        1.2248575923   -1.8893382623    0.5220542438
H        2.4273290989   -2.5260320822   -0.6336044647
H        0.7025627074   -0.9547685321   -1.5544895847
H        5.5985888193   -0.4595531113   -2.5111899234
H        4.7347952718    1.1142054300   -2.4625461924
H        4.4238495851   -0.0235459988   -3.7961830429
13   
torsion grid (75,)
C        2.0450506992   -1.5861033524   -0.1347174194
N        1.4990799240   -0.6359686297   -1.1234248729
C        2.4059364636   -0.0460599443   -2.0262213166
O        2.1764493680    0.9692790254   -2.6557180927
O        3.6263246806   -0.6456648217   -1.9986876190
C        4.6529451904    0.0318362574   -2.7505521422
H        2.7854999966   -1.0769952788    0.4846629543
H        1.2200841445   -1.8998311976    0.5106999369
H        2.5154765313   -2.4726930788   -0.5765921859
H        0.7630544708   -1.1040488618   -1.6472352751
H        5.5642429049   -0.5416525021   -2.5790376462
H        4.7689660829    1.0587649366   -2.3964946815
H        4.4008306708    0.0454297700   -3.8133055521
13   
torsion grid (90,)
C        0.2927370723   -0.2455461509   -0.9223374253
N        1.6894222575   -0.7332951751   -0.8994748100
C        2.4498446812   -0.2280635939   -1.9890487827
O        2.0204802177    0.1133211720   -3.0766273406
O        3.7626432376   -0.2627620819   -1.6778508835
C        4.6519918273    0.1056478284   -2.7516840868
H       -0.2341280633   -0.4648277746   -1.8586408514
H       -0.2376337991   -0.7061085446   -0.0850548307
H        0.2904422467    0.8363424832   -0.7713378980
H        1.6505208559   -1.7471093006   -0.9991006824
H        5.6572830119   -0.0009420241   -2.3441564674
H        4.4689681759    1.1375252371   -3.0599949081
H        4.5115159451   -0.5550962007   -3.6109262721
13   
torsion grid (105,)
C        0.2679719269   -0.2844771889   -0.9530832755
N        1.6947134190   -0.6538673595   -0.8811287469
C        2.4541471388   -0.1378827428   -1.9488749962
O        2.0176816021    0.3143814262   -2.9932369098
O        3.7722550370   -0.3005380674   -1.6881415780
C        4.6530864836    0.0651253614   -2.7687632695
H       -0.2190402922   -0.6052354131   -1.8818612530
H       -0.2405280166   -0.7335945397   -0.0962733696
H        0.1742325512    0.8005849031   -0.8771422618
H        1.7616062417   -1.6694835002   -0.8840723875
H        5.6587856269   -0.1499638905   -2.4073820952
H        4.5480944044    1.1268568152   -3.0031539689
H        4.4310815439   -0.5228199295   -3.6631211271
13   
torsion grid (120,)
C        0.2518145154   -0.3158456979   -0.9799612344
N        1.6919682678   -0.5972672576   -0.8769361011
C        2.4567224544   -0.0829680386   -1.9245747215
O        2.0261427536    0.4691897160   -2.9232929998
O        3.7699207857   -0.3492642349   -1.7082769087
C        4.6487868422    0.0370152393   -2.7822333524
H       -0.2033016847   -0.7239178463   -1.8908176494
H       -0.2414637988   -0.7383120409   -0.1011003552
H        0.0961760195    0.7641591953   -0.9790344420
H        1.8512555838   -1.5948526451   -0.7682656555
H        5.6457571247   -0.2685703406   -2.4640883832
H        4.6104910408    1.1177215471   -2.9370078806
H        4.3698177623   -0.4680017215   -3.7106455553
13   
torsion grid (135,)
C        0.2378352598   -0.3423723033   -1.0013633389
N        1.6836761996   -0.5590502560   -0.8874902716
C        2.4569174836   -0.0508003423   -1.9170698773
O        2.0429408339    0.5912039950   -2.8688761697
O        3.7584840961   -0.4053931841   -1.7397801929
C        4.6455144001    0.0168634786   -2.7924520660
H       -0.1988450167   -0.8281986778   -1.8829656076
H       -0.2400021027   -0.7270816948   -0.0971393053
H        0.0404474855    0.7280584535   -1.0726103780
H        1.9237083588   -1.5175510422   -0.6575349095
H        5.6279841414   -0.3644439903   -2.5129700951
H        4.6641107183    1.1069290372   -2.8628738172
H        4.3313158089   -0.3990775994   -3.7531092100
13   
torsion grid (150,)
C        0.2235145968   -0.3656767161   -1.0156026051
N        1.6707575529   -0.5460391986   -0.9173646639
C        2.4538821565   -0.0370410184   -1.9266675732
O        2.0660230193    0.6884695316   -2.8290555849
O        3.7403590809   -0.4650308337   -1.7826340634
C        4.6459516416    0.0047370825   -2.7981090919
H       -0.2179111365   -0.9276724724   -1.8485229214
H       -0.2325813146   -0.6896735863   -0.0770580202
H        0.0054462692    0.6923405960   -1.1659450623
H        1.9800846512   -1.4437986296   -0.5643992910
H        5.6113625614   -0.4385063896   -2.5522305667
H        4.7103656529    1.0952985135   -2.7797701463
H        4.3168329351   -0.3183210046   -3.7888756489
13   
torsion grid (165,)
C        0.2075939551   -0.3863913479   -1.0215169915
N        1.6506578467   -0.5813825723   -0.9805107773
C        2.4483254831   -0.0403212965   -1.9510223242
O        2.0955460237    0.7755403248   -2.7894139339
O        3.7184806847   -0.5299998252   -1.8397843689
C        4.6518818554    0.0050607296   -2.7955145252
H       -0.2857466771   -1.0533133365   -1.7403945972
H       -0.2057656631   -0.5639390719   -0.0254178232
H        0.0010417887    0.6442763002   -1.3119009246
H        2.0155836246   -1.4043372143   -0.5189556832
H        5.6005056660   -0.4878897523   -2.5805113291
H        4.7475931732    1.0869281712   -2.6755000406
H        4.3283899057   -0.2151452346   -3.8157919202
13   
torsion grid (180,)
C        0.1949879039   -0.4010879692   -1.0147910526
N        1.5989965287   -0.7457039217   -1.1604820731
C        2.4393541566   -0.0650283688   -1.9901602067
O        2.1375773698    0.8867953208   -2.6957641542
O        3.6935930836   -0.6049459870   -1.9240067349
C        4.6666425820    0.0391171344   -2.7657019797
H       -0.4498523885   -1.2352856094   -1.3138259497
H       -0.0383450631   -0.1234052780    0.0193877705
H       -0.0103752923    0.4514624099   -1.6625621041
H        1.9918395758   -1.5150641375   -0.6359770940
H        5.5960330398   -0.5078647603   -2.6035120907
H        4.7863144040    1.0880904218   -2.4837996537
H        4.3673217662   -0.0179933807   -3.8150399160
