23   
torsion grid (-165,)
C       -0.1641562743   -1.0192039920    0.8123361793
C        0.8026657198   -0.5858339182    1.6403446455
C        0.3114514227    1.9941460093    1.7420920826
C       -0.7151634686    1.3516659566    2.6235624281
C        0.6604253091    0.6862691123    2.4545416976
C        2.0839825881   -1.3840264448    1.7861898590
C        1.5126070983    0.8020546524    3.6905073540
N        0.2735909576   -1.0746541859    4.5754417306
O        0.8600090557    0.1738922671    4.8842112938
H       -0.0280105563   -1.9175099517    0.2177319161
H       -1.0957177673   -0.4838997663    0.6547871746
H        0.1899691999    1.9094726389    0.6676835090
H        0.7934017848    2.9066807663    2.0793045081
H       -0.9208532693    1.8187658228    3.5821079953
H       -1.5743528077    0.8816606853    2.1577205114
H        2.9619216547   -0.7777316357    1.5342855148
H        2.2604735810   -1.7600747784    2.8028170225
H        2.0752075176   -2.2494731827    1.1219487641
H        1.6023828165    1.8282881445    4.0467869711
H        2.5079089124    0.3663739634    3.5972984241
H       -0.4511793529   -1.2277876301    5.2895528192
H        0.9702122102   -1.8329475763    4.6290354227
H       -0.1567385856   -1.0624090358    3.6271376739
23   
torsion grid (-150,)
C        0.9378503355   -0.0266255355   -0.0600504213
C        0.6383800987   -0.2735497611    1.2240707211
C        1.6214792610    2.0077254797    2.1281532745
C        0.1834467786    2.2358715556    1.8046415486
C        0.5951262912    0.8386980470    2.2564840029
C        0.3587981619   -1.6922281162    1.6776211847
C        0.1668488602    0.5085281340    3.6595375541
N        2.4170614040   -0.1402826666    4.1725400508
O        1.0554298605   -0.4708996708    4.3453561619
H        0.9701582341   -0.8320422200   -0.7870816943
H        1.1480269981    0.9665728521   -0.4475215689
H        2.3314670007    1.9385157787    1.3097252230
H        1.9988962955    2.4930563157    3.0277248250
H       -0.4014519089    2.8422446459    2.4897837992
H       -0.1128455268    2.3228461589    0.7661802317
H        1.1131806999   -2.0717586210    2.3758541947
H       -0.6088222759   -1.7821070610    2.1831748242
H        0.3408306376   -2.3638307434    0.8179993703
H       -0.7838792938   -0.0228986939    3.7149922248
H        0.1159460131    1.4021698782    4.2893581638
H        2.9431853894   -1.0096188094    4.3353711277
H        2.7149206084    0.5740890946    4.8555674182
H        2.5745952425    0.2116882943    3.2085873402
23   
torsion grid (-135,)
C        1.2938647766   -0.0544963678    0.1328574108
C        0.7038304454   -0.2393426032    1.3264253996
C        1.4900964713    2.1175433878    2.2186775350
C        0.0545323678    2.2489183298    1.8487725467
C        0.5555714589    0.8858135304    2.3327081118
C        0.1826706767   -1.6109091367    1.7138255315
C        0.2016184753    0.5156959134    3.7427654240
N        2.5127683203   -0.2027452206    3.8748050549
O        1.2059373844   -0.3991492630    4.3741009146
H        1.3777998600   -0.8728218754   -0.5756760071
H        1.6692413249    0.9061616219   -0.2081917559
H        2.2362099380    2.1162558573    1.4308809593
H        1.8040007203    2.6117758524    3.1367268848
H       -0.5999691041    2.8193022632    2.5013491735
H       -0.2084872749    2.2874061557    0.7976056955
H        0.6344838410   -2.0047750204    2.6295163544
H       -0.8997231228   -1.5855015184    1.8881249423
H        0.3669147878   -2.3277622893    0.9122148641
H       -0.7029901755   -0.0859053214    3.8377114416
H        0.1263793609    1.3953498317    4.3866027526
H        3.0658733477   -0.9728243189    4.2750670347
H        2.9091940352    0.6990955953    4.1795220467
H        2.5254411884   -0.2523916475    2.8372752380
23   
torsion grid (-120,)
C        1.5387371864   -0.1507552159    0.2898153245
C        0.7372355453   -0.2491586500    1.3663691507
C        1.3895841338    2.1732494548    2.2056355710
C       -0.0626079718    2.2022597432    1.8696217901
C        0.5498875665    0.8853372815    2.3511474081
C        0.0166742575   -1.5475697837    1.6716339044
C        0.2646607217    0.4930779640    3.7725530949
N        2.5817533379   -0.2050131630    3.7612758258
O        1.3042963199   -0.4256054248    4.3273976760
H        1.6364316711   -0.9805379604   -0.4040331401
H        2.0723680479    0.7552638879    0.0196696069
H        2.1106955648    2.2435624902    1.3993072094
H        1.6909089991    2.6845929121    3.1178746821
H       -0.7436518508    2.7282624571    2.5324513736
H       -0.3457017139    2.2162482306    0.8228332930
H        0.3232096451   -1.9853397173    2.6266484044
H       -1.0666485708   -1.3876381111    1.7283197747
H        0.2015076074   -2.2845910705    0.8884620994
H       -0.6320324064   -0.1143712135    3.9005565166
H        0.2143595756    1.3619323755    4.4336452044
H        3.1742192966   -0.9482186369    4.1554511459
H        2.9654048473    0.7154200825    4.0230324654
H        2.5395099096   -0.2896945133    2.7219526539
23   
torsion grid (-105,)
C        1.7114860920   -0.2366191451    0.4336228723
C        0.7613463143   -0.2553457634    1.3873276269
C        1.3072101866    2.2155421759    2.1578033752
C       -0.1645923057    2.1438691497    1.9005362434
C        0.5648773100    0.8843897950    2.3599750101
C       -0.1252681153   -1.4652826639    1.5860603137
C        0.3462495022    0.4780179510    3.7922727249
N        2.6585805343   -0.1924708852    3.7124378282
O        1.3898062559   -0.4663466407    4.2762610913
H        1.8186201562   -1.0678851098   -0.2574940377
H        2.3626481382    0.6147582630    0.2573692789
H        1.9652826363    2.3324827882    1.3048406475
H        1.6266240594    2.7582964071    3.0449514165
H       -0.8434357970    2.6283250336    2.5966273134
H       -0.4988451542    2.1388540473    0.8686982619
H        0.0654314286   -1.9611410255    2.5432524520
H       -1.1822966412   -1.1752523612    1.5775513029
H        0.0289625726   -2.1984342206    0.7924709303
H       -0.5548176195   -0.1152201883    3.9533362230
H        0.3394706204    1.3391971286    4.4665460090
H        3.2818076330   -0.9109141360    4.1049320528
H        3.0042208424    0.7430313481    3.9743242749
H        2.6084478305   -0.2849227531    2.6711812173
23   
torsion grid (-90,)
C        1.8297367830   -0.3151937110    0.5678597158
C        0.7859102018   -0.2719324580    1.4173481888
C        1.2302280895    2.2389368305    2.1166509781
C       -0.2526154895    2.0671593090    1.9513519668
C        0.5898142516    0.8738216022    2.3797356725
C       -0.2354252472   -1.3816841689    1.4872161862
C        0.4284321042    0.4669407373    3.8226602130
N        2.7346941298   -0.1872305597    3.7140699536
O        1.4688157897   -0.4928961281    4.2668946071
H        1.9512490101   -1.1409579472   -0.1277141734
H        2.5485837589    0.4962464496    0.4767653885
H        1.8205087527    2.3748437149    1.2177499057
H        1.5718892126    2.8199506958    2.9703471508
H       -0.9162004522    2.5165498894    2.6847213381
H       -0.6472701224    2.0345237333    0.9413175628
H       -0.2052344120   -1.9031744035    2.4498935796
H       -1.2464003113   -0.9750127947    1.3721328484
H       -0.0724008988   -2.1211184826    0.7011394470
H       -0.4756633346   -0.1128172423    4.0149306829
H        0.4554234546    1.3285298580    4.4973100860
H        3.3751378027   -0.8869717618    4.1126242839
H        3.0529636622    0.7585282181    3.9745626004
H        2.6864649876   -0.2907184818    2.6725036418
23   
torsion grid (-75,)
C        1.9064937469   -0.4251907880    0.6585577528
C        0.7998231121   -0.3187809557    1.4181869664
C        1.1562873749    2.2312264010    2.0348852196
C       -0.3268668946    1.9712984815    1.9635070721
C        0.6109940615    0.8445382636    2.3607839209
C       -0.3305242711   -1.3128708746    1.3450528026
C        0.5027463968    0.4582859858    3.8180489045
N        2.8094810993   -0.1742214629    3.7055698383
O        1.5475077959   -0.4949235012    4.2557944906
H        2.0410095250   -1.2518755386   -0.0335820779
H        2.6688409893    0.3529740640    0.6293997710
H        1.6829534759    2.3672556154    1.0967806991
H        1.5178776240    2.8524449865    2.8511533178
H       -0.9689056505    2.4002235884    2.7275407917
H       -0.7764482858    1.9033834179    0.9783556071
H       -0.5260143610   -1.7859179307    2.3137151691
H       -1.2529906949   -0.8025341822    1.0474882387
H       -0.1237049681   -2.1024934345    0.6204436477
H       -0.3965604117   -0.1173841633    4.0434504241
H        0.5453729176    1.3321739416    4.4768773420
H        3.4645724291   -0.8472151912    4.1258608845
H        3.1033896677    0.7858505741    3.9418530458
H        2.7664717347   -0.3101303424    2.6676293005
23   
torsion grid (-60,)
C        1.9510206119   -0.5493805301    0.7430005289
C        0.8028895776   -0.3783298335    1.4249182169
C        1.0835475434    2.2040524528    1.9837415809
C       -0.3907671913    1.8700670875    2.0227116619
C        0.6318332559    0.7999507020    2.3544729535
C       -0.4060314296   -1.2480072955    1.2003518449
C        0.5892896095    0.4267142733    3.8230933181
N        2.9040987519   -0.1586261131    3.7053314228
O        1.6493321648   -0.5101465326    4.2498163651
H        2.0898720182   -1.3792403651    0.0555199765
H        2.7507909280    0.1931947203    0.7612635827
H        1.5364347892    2.3459661706    1.0083130434
H        1.4747889462    2.8517609561    2.7651149349
H       -0.9932466062    2.2753656913    2.8304726808
H       -0.9069982987    1.7831792851    1.0727288699
H       -0.8303916422   -1.6216110843    2.1389298096
H       -1.1888957721   -0.6587461452    0.7117782744
H       -0.1741577183   -2.1049714444    0.5651710299
H       -0.2969613335   -0.1554861449    4.0823917231
H        0.6404001375    1.3104049511    4.4690963680
H        3.5785571051   -0.8022802406    4.1408944810
H        3.1650172912    0.8147979540    3.9261627139
H        2.8719346467   -0.3154026037    2.6717923112
23   
torsion grid (-45,)
C        1.9501620801   -0.6925671942    0.8331953924
C        0.7721493877   -0.4165280036    1.4213861760
C        1.0188936666    2.1912934769    1.9278799094
C       -0.4401253648    1.8143924642    2.0806132798
C        0.6386922498    0.7792650908    2.3376782923
C       -0.4935867255   -1.1370292615    1.0346581997
C        0.6583036525    0.4256858650    3.8151226604
N        2.9944485903   -0.0622302399    3.7256464777
O        1.7488145012   -0.4694469682    4.2482459524
H        2.0758972683   -1.5348602807    0.1586216151
H        2.8055768616   -0.0153804298    0.9003874412
H        1.3965159266    2.3291412034    0.9200904657
H        1.4512998282    2.8586554579    2.6703763600
H       -0.9891145736    2.2092038871    2.9304178144
H       -1.0262144788    1.7143617256    1.1741618646
H       -1.1246022121   -1.3689522711    1.8996439025
H       -1.0830827088   -0.4929610634    0.3743038532
H       -0.2824713026   -2.0657231326    0.5006537655
H       -0.2042267792   -0.1794007108    4.1019906583
H        0.6930931223    1.3226100531    4.4445987334
H        3.6930753399   -0.6617171101    4.1858748349
H        3.1996925593    0.9275854353    3.9334133995
H        2.9961975157   -0.2369921885    2.6985795050
23   
torsion grid (-30,)
C        1.7377292388   -1.1776597736    1.0605213866
C        0.5961210227   -0.5383726280    1.3492674133
C        0.9956697510    2.0181495775    1.9573645947
C       -0.4543457217    1.7049566855    2.1948017842
C        0.5621239058    0.5912164919    2.3604483644
C       -0.7034510941   -0.9095772121    0.6770229312
C        0.7553724645    0.1780710737    3.7984711099
N        3.1093937124    0.5085747440    3.7322007132
O        2.0878428353   -0.4000524680    4.0863161065
H        1.7649984707   -2.0047662043    0.3571202203
H        2.6997037314   -0.9094071504    1.4927314298
H        1.3256815881    2.1547610614    0.9323681443
H        1.4790937923    2.6720434799    2.6832286192
H       -0.9238761941    2.1115352421    3.0853345805
H       -1.1074276705    1.6562098545    1.3323833159
H       -1.5095300916   -1.0400824143    1.4076356597
H       -1.0262474518   -0.1283226373   -0.0201622920
H       -0.5999456933   -1.8356279330    0.1080283155
H        0.1139254558   -0.6593159261    4.0784764520
H        0.5946745803    1.0087204834    4.4963307377
H        3.9795479525   -0.0405789278    3.7072396146
H        3.1988625713    1.2602755018    4.4350509107
H        2.9105808235    0.9188775121    2.8009739618
23   
torsion grid (-15,)
C        1.5736330896   -1.4604799098    1.2740371944
C        0.5383827618   -0.6097562102    1.3627717988
C        0.8253433181    1.9183556986    2.0141748798
C       -0.5876360947    1.5552399058    2.3271198576
C        0.4680012667    0.4627894532    2.4327666798
C       -0.6445405787   -0.7506409270    0.4343791671
C        0.7967762738    0.0746770170    3.8497280295
N        3.1215129765    0.5397021699    3.4991139742
O        2.2002698305   -0.3675150229    4.0649670023
H        1.5894466615   -2.2384763564    0.5166342611
H        2.4152509777   -1.4682519778    1.9599231612
H        1.0945457826    2.0713625583    0.9732134811
H        1.3303317699    2.5803516692    2.7168223020
H       -1.0182680204    1.9328183870    3.2495313157
H       -1.2936180794    1.4882583954    1.5095773365
H       -1.5668875830   -0.9046075978    1.0047416317
H       -0.7927338626    0.1400534694   -0.1875256395
H       -0.5099828263   -1.5999228674   -0.2376543744
H        0.2627366969   -0.8198108021    4.1745441296
H        0.6062526972    0.8939582186    4.5515461727
H        4.0356544849    0.0688267090    3.5461738147
H        3.1640772819    1.4209955427    4.0355516499
H        2.8680914972    0.7428205716    2.5149599342
23   
torsion grid (0,)
C        1.4631620021   -1.5817852974    1.5939313273
C        0.5922334382   -0.5582721783    1.4672902035
C        0.6789779552    1.9483335506    2.1251587294
C       -0.7065850827    1.5119987509    2.4347945875
C        0.4052042304    0.4717202818    2.5526626463
C       -0.3470596884   -0.5166459665    0.2854429660
C        0.8302804251    0.1362051710    3.9543457132
N        3.0982033818    0.4734660162    3.1342052548
O        2.2956067250   -0.1303670869    4.1251030816
H        1.5559158873   -2.3227875208    0.8058208119
H        2.0144967254   -1.7988868152    2.5055186296
H        0.9464821472    2.1204300548    1.0867772707
H        1.1536750387    2.6233201655    2.8361336758
H       -1.1595336284    1.8577710253    3.3586647437
H       -1.4099816980    1.3957540755    1.6203533200
H       -1.3632292566   -0.7453535365    0.6235018740
H       -0.3793680368    0.4601876424   -0.2095018134
H       -0.0639811285   -1.2590826147   -0.4623218193
H        0.4025774953   -0.8006041142    4.3156996581
H        0.5932811297    0.9469112834    4.6466989558
H        4.0571188386    0.1774322404    3.3620833237
H        3.0407043249    1.5014173657    3.1555174278
H        2.8304668228    0.1106472294    2.1909485909
23   
torsion grid (15,)
C        1.3540471641   -1.6446027864    1.7196453114
C        0.5857439634   -0.5512816256    1.5240355586
C        0.5838111278    1.9829391790    2.1614535709
C       -0.7663537807    1.4647877457    2.5189389552
C        0.4145977609    0.4985936415    2.5887449278
C       -0.2050047597   -0.4054536422    0.2453893948
C        0.8903054194    0.1897832788    3.9816514478
N        3.1089993960    0.4572236679    3.0188644141
O        2.3665484282   -0.0399117412    4.1103062019
H        1.4469004923   -2.3976368644    0.9428861340
H        1.8177108922   -1.8910705014    2.6720307849
H        0.7990232131    2.1862722678    1.1173991842
H        1.0529534169    2.6697658376    2.8640177375
H       -1.2080115051    1.7784445038    3.4593403535
H       -1.4852348409    1.3077484286    1.7247918402
H       -1.2626823532   -0.6093252641    0.4431301971
H       -0.1426117819    0.5958139676   -0.1921033875
H        0.1358558823   -1.1207298308   -0.5048480664
H        0.4837890994   -0.7457327555    4.3697781347
H        0.6638312259    1.0070986717    4.6688106520
H        4.0822586032    0.1942774697    3.2244390341
H        3.0377442557    1.4809429597    2.9325066674
H        2.7891907517   -0.0106921261    2.1370738423
23   
torsion grid (30,)
C        1.2425571089   -1.7068613795    1.8132460865
C        0.5802021022   -0.5587302500    1.5540288414
C        0.4750161721    2.0009165882    2.1823714115
C       -0.8273026073    1.3922907006    2.5883523788
C        0.4228669221    0.5122482022    2.5991253473
C       -0.0474806687   -0.3393037021    0.1970797382
C        0.9401755561    0.2264948526    3.9836985539
N        3.1179885875    0.4276213995    2.9245446882
O        2.4205441362    0.0097884131    4.0766496476
H        1.3317697190   -2.4744187790    1.0503920299
H        1.6291739950   -1.9686466634    2.7951707558
H        0.6277913051    2.2379393315    1.1353357251
H        0.9347883574    2.7028846950    2.8752791683
H       -1.2545348128    1.6651521768    3.5478966516
H       -1.5602114463    1.1914741246    1.8169093369
H       -1.1380452183   -0.4082275204    0.2674134010
H        0.1883796945    0.6385362536   -0.2324517846
H        0.2831143429   -1.1037372521   -0.5077820524
H        0.5432029259   -0.7011830988    4.3992637196
H        0.7304246166    1.0542641466    4.6631030948
H        4.0997494711    0.1805515866    3.1077454418
H        3.0386312308    1.4429174178    2.7695027876
H        2.7591677768   -0.1019945734    2.0932154287
23   
torsion grid (45,)
C        1.1174259817   -1.7682568370    1.8806304118
C        0.5716099047   -0.5703516483    1.5822880686
C        0.3307943209    1.9849222441    2.2100381244
C       -0.9032589526    1.2862331098    2.6855518500
C        0.4096028202    0.5025103890    2.6265123424
C        0.1340521924   -0.2647536770    0.1676429700
C        0.9816024374    0.2435856043    3.9960794380
N        3.1128835726    0.3962928703    2.8491832599
O        2.4608506489    0.0166570434    4.0397805272
H        1.2100130914   -2.5371318931    1.1194473646
H        1.4192783521   -2.0557246891    2.8842633221
H        0.4033242702    2.2271219121    1.1559730648
H        0.7770589298    2.7215262852    2.8745219951
H       -1.2943738292    1.5274399726    3.6687945886
H       -1.6623773250    1.0258282429    1.9580398036
H       -0.9163281692    0.0391965000    0.1255193580
H        0.7203829604    0.5459181500   -0.2775714444
H        0.2471042306   -1.1448855905   -0.4670176956
H        0.5922538485   -0.6694012130    4.4494208184
H        0.8017679071    1.0880462482    4.6636251016
H        4.1030293168    0.1632726012    3.0035339810
H        3.0183947217    1.4047869082    2.6596522451
H        2.7233306948   -0.1669666551    2.0554446644
23   
torsion grid (60,)
C        1.0659352717   -1.5761666525    1.8464472203
C        0.5912772679   -0.3443319439    1.5518103929
C       -0.0054185418    2.1372149421    2.2110507790
C       -1.0456384257    1.2413350694    2.8028207056
C        0.3837037233    0.7120321418    2.6071982103
C        0.2350813243    0.0025689966    0.1266718054
C        1.1986001043    0.6151319627    3.8705763469
N        3.3449369872    0.1660757217    2.8806415009
O        2.5983467742    1.0660325662    3.6870356023
H        1.1701566334   -2.3304824613    1.0721628407
H        1.2390916438   -1.9195632122    2.8643051337
H       -0.0742519713    2.3782664067    1.1573340451
H        0.3937450725    2.9398388198    2.8235426290
H       -1.3777663737    1.4137777825    3.8220429119
H       -1.8073773683    0.8257030898    2.1522439030
H       -0.8071432998    0.3300857367    0.0503479995
H        0.8537749566    0.8214817585   -0.2548173271
H        0.3594524472   -0.8597903521   -0.5300533696
H        1.2115893198   -0.3781921574    4.3286413959
H        0.8630313032    1.3299124446    4.6225409101
H        3.8439030161   -0.5069389778    3.4821697199
H        4.0315915734    0.7376171721    2.3702337929
H        2.7162294595   -0.3518066408    2.2070192583
23   
torsion grid (75,)
C        0.9345241922   -1.5734086391    1.8826766449
C        0.5896075709   -0.3092924908    1.5518554841
C       -0.1573240355    2.1319667742    2.2275160803
C       -1.0756724869    1.1595088206    2.9047797501
C        0.3728136108    0.7547712822    2.6041610770
C        0.4158785073    0.0831838476    0.1063253756
C        1.2727403610    0.7183473374    3.8114547321
N        3.3587502746    0.0800066835    2.8197313413
O        2.6665150650    1.1163714850    3.4991223881
H        1.0587931626   -2.3362962773    1.1192015459
H        0.9824529310   -1.9179694098    2.9140381869
H       -0.3265977392    2.3507989449    1.1800918191
H        0.2131546708    2.9770814547    2.7997184836
H       -1.3508712383    1.3217082822    3.9428346060
H       -1.8420443919    0.6727294519    2.3104539770
H       -0.6154181259    0.4002138035   -0.0870665849
H        1.0588944895    0.9287306913   -0.1600171189
H        0.6328844823   -0.7527154763   -0.5612296862
H        1.3004941023   -0.2486498672    4.3241330178
H        1.0013359425    1.4815751995    4.5414787456
H        3.8107763269   -0.5474526422    3.5026436973
H        4.0827525902    0.5420341851    2.2531644107
H        2.6947874264   -0.4671254414    2.2050285413
23   
torsion grid (90,)
C        0.7846763034   -1.5725541978    1.9083848887
C        0.5817406584   -0.2847821084    1.5582552157
C       -0.3102605993    2.1025588990    2.2458053972
C       -1.1051305651    1.0828204645    3.0128828648
C        0.3388957382    0.7793964696    2.6109122246
C        0.6238783148    0.1487616519    0.1146669230
C        1.3180764755    0.8103819808    3.7551407199
N        3.3428597815    0.0220907831    2.7624011977
O        2.6956733114    1.1529919821    3.3231357752
H        0.9480264292   -2.3418011490    1.1579315180
H        0.6876138098   -1.9138480878    2.9377143956
H       -0.5723878693    2.2765228273    1.2086186671
H        0.0324038120    2.9903359468    2.7688622080
H       -1.3177864441    1.2593488490    4.0635549353
H       -1.8760810224    0.5291224622    2.4869101076
H       -0.3698917589    0.4696707520   -0.2185351118
H        1.2885835933    1.0081953068   -0.0261275956
H        0.9399951754   -0.6655770504   -0.5408720273
H        1.3655235837   -0.1273101625    4.3202675158
H        1.1047566273    1.6205363836    4.4534813645
H        3.7776652167   -0.5438756689    3.5077507283
H        4.0775755066    0.3901665751    2.1433193611
H        2.6483201427   -0.5568497764    2.2159197068
23   
torsion grid (105,)
C       -0.3464311899   -1.5084953226    1.8049205467
C        0.6683724978   -0.6188050293    1.7769855940
C        1.0584396828    1.9713996232    1.8374969869
C       -0.4204126406    1.7623842877    1.9771236008
C        0.5340393176    0.7029723316    2.5094322020
C        1.9057343353   -0.8534550213    0.9507591161
C        0.8125464955    0.6764563094    3.9888480991
N        0.1964845409   -1.4987456929    4.7543647002
O       -0.1447424081   -0.1262309320    4.7905960298
H       -0.2932054930   -2.4489039653    1.2609526581
H       -1.3028288374   -1.2554424364    2.2618982848
H        1.4983040045    1.8727624939    0.8517945267
H        1.5386996889    2.7209948696    2.4599955991
H       -0.9694662396    2.3632661695    2.6965184603
H       -0.9833935488    1.5034014998    1.0865581490
H        1.8694593433   -0.2280961851    0.0521525256
H        2.8182353467   -0.5739921547    1.4887474028
H        1.9855081967   -1.8930366276    0.6249232387
H        0.6926208528    1.6626956515    4.4396696541
H        1.8225989233    0.3122834163    4.2194380424
H       -0.5663479729   -1.9881743503    5.2417184061
H        1.0847095054   -1.6713470533    5.2519767498
H        0.2476299205   -1.8101745144    3.7479838627
23   
torsion grid (120,)
C       -0.3883996948   -1.4548060453    1.6670942889
C        0.6691550080   -0.6252992879    1.7789966896
C        0.9364251819    1.9677955189    1.7763902749
C       -0.5088384594    1.7091256865    2.0897633464
C        0.5367215951    0.6917892508    2.5161826299
C        1.9954132881   -0.9206363226    1.1264439552
C        0.9513856778    0.6725651741    3.9626983839
N        0.2070130136   -1.4768820485    4.6927602653
O        0.0280941134   -0.0807498071    4.8470647099
H       -0.3217204875   -2.3916671739    1.1184652699
H       -1.3733408118   -1.1644945219    2.0307435400
H        1.2578277715    1.8633651057    0.7459100616
H        1.4612819361    2.7416643092    2.3290356325
H       -0.9877324686    2.3019697422    2.8636571086
H       -1.1619986840    1.4287947628    1.2703710600
H        2.1323481204   -0.2622266018    0.2623732156
H        2.8379919609   -0.7223953631    1.7991869116
H        2.0584208046   -1.9527770992    0.7743466373
H        0.9053003648    1.6643514629    4.4145124531
H        1.9610977494    0.2686770392    4.1133090815
H       -0.5700646014   -1.9151250612    5.2054467797
H        1.1021798042   -1.7798847919    5.1087194828
H        0.1585674379   -1.7256364494    3.6683909481
23   
torsion grid (135,)
C       -0.4010554493   -1.3922524781    1.5236899795
C        0.6789778970   -0.6222246148    1.7633710497
C        0.8180226647    1.9731370760    1.7167953481
C       -0.5744019389    1.6548809318    2.1863770608
C        0.5555245950    0.6910345806    2.5032297476
C        2.0595251604   -0.9964845410    1.2830573745
C        1.0753803387    0.6906576847    3.9161795424
N        0.2120755038   -1.4190041007    4.6365047854
O        0.1870386165   -0.0212083643    4.8674028052
H       -0.3214166022   -2.3244961335    0.9694046328
H       -1.4027914286   -1.0676581615    1.7991892929
H        1.0308706403    1.8605788342    0.6587081555
H        1.3670815714    2.7743976980    2.2027198205
H       -0.9895050852    2.2353255294    3.0048418213
H       -1.2988068313    1.3508557440    1.4389048680
H        2.3770883788   -0.2978503248    0.5015916157
H        2.8108248125   -0.9224858392    2.0782506623
H        2.0901292090   -2.0067338810    0.8692073251
H        1.0802153092    1.6892276708    4.3547048711
H        2.0806730397    0.2627633304    4.0121676211
H       -0.5803552672   -1.8029074243    5.1688129262
H        1.0897434888   -1.8313002106    4.9906695564
H        0.0930068795   -1.6179532844    3.6070084766
23   
torsion grid (150,)
C       -0.3808939405   -1.2748219536    1.3848090556
C        0.7160025055   -0.5784286970    1.7422977315
C        0.7548623430    2.0263341021    1.6980614694
C       -0.5726680369    1.6514537844    2.3009771963
C        0.6190395448    0.7297512333    2.4921877401
C        2.1096824074   -1.0689473854    1.4235371597
C        1.2298953641    0.7390980904    3.8692231296
N        0.2657301571   -1.3326300500    4.5840052255
O        0.3820249139    0.0495856933    4.8743142776
H       -0.3024541983   -2.2016902692    0.8220512538
H       -1.3851745954   -0.9065769096    1.5796602117
H        0.8678880440    1.9197875569    0.6239271472
H        1.3238034377    2.8418153774    2.1347845952
H       -0.9211656003    2.2070849557    3.1660990141
H       -1.3593878798    1.3406448834    1.6231750199
H        2.6320033920   -0.3323588439    0.8031854618
H        2.7263628961   -1.2005825767    2.3207987035
H        2.0905214404   -2.0189163870    0.8857064832
H        1.2687136293    1.7404437326    4.2991797881
H        2.2319094365    0.2994524406    3.9170229239
H       -0.5266272276   -1.6691092582    5.1475869404
H        1.1202812844   -1.8373683016    4.8670317091
H        0.0736533502   -1.4812799397    3.5582181314
23   
torsion grid (165,)
C       -0.3497968470   -1.2412645142    1.2333494519
C        0.7308221715   -0.6011727283    1.7203063966
C        0.6112001813    2.0132796125    1.6903426684
C       -0.6298241764    1.5563369748    2.4093485615
C        0.6276777648    0.7034596615    2.4756981020
C        2.1194313439   -1.1870465676    1.5689951847
C        1.3290044506    0.7423032162    3.8094164102
N        0.2755461457   -1.2835224313    4.5546555333
O        0.5427483997    0.0705266908    4.8772276204
H       -0.2463249430   -2.1633233603    0.6674660966
H       -1.3562506104   -0.8441952457    1.3282503731
H        0.6327990096    1.9171984410    0.6097925223
H        1.1719859725    2.8557418505    2.0842575539
H       -0.9220322444    2.0809225309    3.3136183272
H       -1.4613566294    1.2164542946    1.8035210053
H        2.8093448944   -0.4418591293    1.1579425301
H        2.5520794401   -1.5096662277    2.5244556753
H        2.1144579143   -2.0530044589    0.9045627606
H        1.3871027531    1.7505756717    4.2202869591
H        2.3320770151    0.3065480296    3.8042139950
H       -0.5184250232   -1.5589085115    5.1482571486
H        1.0878935065   -1.8778489188    4.7804081567
H        0.0226887587   -1.3891300310    3.5389116777
23   
torsion grid (180,)
C       -0.2680611827   -1.1503610876    1.0609186452
C        0.7690754237   -0.5858444224    1.7076022117
C        0.4605285912    2.0238301467    1.7188115345
C       -0.6770077120    1.4751565180    2.5321664910
C        0.6434837748    0.7099284772    2.4796204852
C        2.1242904026   -1.2665051453    1.7193323930
C        1.4172374426    0.7869871780    3.7701775179
N        0.2626623951   -1.1764350987    4.5594072007
O        0.6881003089    0.1321968442    4.8949641482
H       -0.1359158751   -2.0646861729    0.4893487834
H       -1.2579341996   -0.7061819343    1.0276290435
H        0.4043923879    1.9295484158    0.6395907345
H        0.9912996945    2.9016207738    2.0749398386
H       -0.9203570228    1.9691367609    3.4676948287
H       -1.5353633006    1.0793125752    2.0024945894
H        2.9167664130   -0.5715009365    1.4197025299
H        2.4094956410   -1.6458467920    2.7091559159
H        2.1406611875   -2.1145858111    1.0328002955
H        1.4863474518    1.8035568518    4.1579393954
H        2.4191344505    0.3552384291    3.7263471930
H       -0.5294092075   -1.3809965349    5.1834283245
H        1.0154800079   -1.8590799663    4.7336239222
H       -0.0434556092   -1.2360857690    3.5589840519
