17   
torsion grid (-165,)
C        1.1774158500   -1.3931085151    2.1318564236
C        0.4108739848   -2.3136014146    1.2113347441
C       -0.0096740720    0.2589685150   -1.2759263753
C       -1.0884962422    0.0887903873   -0.2122631243
C        1.1085541601   -1.0907733963    0.6498305861
C        0.3569003093    0.1298864390    0.1856182582
O        0.7069959093    1.3365763753    0.8494750471
H        0.6049999444   -0.7428356728    2.7858434433
H        2.1213161678   -1.7386744224    2.5432845054
H        0.8334612353   -3.2873529072    0.9803307461
H       -0.6726496017   -2.2950667164    1.2731928712
H        0.1951465494   -0.5833089480   -1.9316742203
H        0.0905487550    1.2407981722   -1.7286988869
H       -1.6785332919    0.9642324067    0.0401361341
H       -1.6171237048   -0.8576455655   -0.1671810143
H        2.0196024995   -1.2935012934    0.0877580372
H        1.6508591138    1.4943884113    0.6850301618
17   
torsion grid (-150,)
C        1.0467650490   -1.4262194432    2.1539679994
C        0.4767602259   -2.3363737730    1.0884968046
C       -0.0737556207    0.1961522171   -1.2467303074
C       -1.0693819880    0.1420639802   -0.0933045472
C        1.1545031298   -1.0408508585    0.6955021009
C        0.4030836331    0.1573574807    0.1882476674
O        0.8415858589    1.3926413089    0.7366344076
H        0.3458821738   -0.8563402810    2.7563326245
H        1.9471786736   -1.7379046132    2.6751679937
H        0.9990531270   -3.2625855126    0.8666812244
H       -0.6033551080   -2.4020359668    1.0060378258
H        0.0521663704   -0.6985550211   -1.8505437965
H        0.0193203002    1.1381184641   -1.7789660829
H       -1.6031964447    1.0570093725    0.1428771961
H       -1.6325694890   -0.7726788854    0.0576476079
H        2.1429918321   -1.1551155502    0.2498208622
H        1.7631658430    1.5230889364    0.4600777566
17   
torsion grid (-135,)
C        0.9247625036   -1.4651644605    2.1581908834
C        0.5440285053   -2.3378096114    0.9808886961
C       -0.1322648165    0.1337348966   -1.2081952870
C       -1.0405974705    0.1901613776    0.0145660555
C        1.1941350192   -0.9920632445    0.7475592375
C        0.4482791158    0.1848259646    0.1884994255
O        0.9531838681    1.4403527419    0.6193309170
H        0.1219923049   -0.9671915243    2.6938255222
H        1.7660954267   -1.7660415532    2.7755441128
H        1.1410423310   -3.2230904124    0.7821672480
H       -0.5113883773   -2.4554257765    0.7556972244
H       -0.0697092210   -0.8053782006   -1.7510454090
H       -0.0597683067    1.0315448736   -1.8149081237
H       -1.5318676412    1.1352019422    0.2223180671
H       -1.6155278927   -0.6924821214    0.2749852523
H        2.2344581769   -1.0346342603    0.4236778314
H        1.8433440406    1.5412312237    0.2448456835
17   
torsion grid (-120,)
C        0.8109137755   -1.5115609024    2.1465344820
C        0.6139794286   -2.3286230783    0.8885725916
C       -0.1868833444    0.0780873863   -1.1599197806
C       -1.0077146068    0.2377370450    0.1116367364
C        1.2260401528   -0.9467898907    0.8057797076
C        0.4904005493    0.2102405522    0.1884316862
O        1.0492363445    1.4765261605    0.5015224794
H       -0.0707641976   -1.0774635244    2.6087277690
H        1.5862536472   -1.8143016892    2.8443666405
H        1.2667337073   -3.1801114200    0.7200112562
H       -0.4004826309   -2.4719019757    0.5278500933
H       -0.1757518243   -0.8951805900   -1.6422753131
H       -0.1387430377    0.9312310667   -1.8304732918
H       -1.4684493213    1.2044011906    0.2869143667
H       -1.5768783031   -0.6131056738    0.4734880140
H        2.2972947555   -0.9290409883    0.6066681729
H        1.8950124716    1.5476281863    0.0301117269
17   
torsion grid (-105,)
C        0.7077656831   -1.5702353962    2.1231206886
C        0.7007448916   -2.3210763830    0.8134757460
C       -0.2460396070    0.0351910859   -1.1066227533
C       -0.9801663613    0.3017328959    0.1948784152
C        1.2416580752   -0.9058278166    0.8710124816
C        0.5211381549    0.2301121428    0.1865190102
O        1.1367706870    1.4935326663    0.3780636423
H       -0.2416208075   -1.2115812009    2.5090271550
H        1.4195070752   -1.8687620281    2.8876466600
H        1.4077046692   -3.1342932737    0.6776132494
H       -0.2594558438   -2.4856349240    0.3321951368
H       -0.2932011003   -0.9630734012   -1.5314103406
H       -0.2093926742    0.8438456280   -1.8312231450
H       -1.4076595661    1.2890992699    0.3356501439
H       -1.5436802403   -0.5106273278    0.6445846245
H        2.3251058319   -0.8235284543    0.8029761539
H        1.9310186987    1.5188983720   -0.1795595314
17   
torsion grid (-90,)
C        0.6082196244   -1.6493328244    2.0814143864
C        0.8446478769   -2.3324838937    0.7563244592
C       -0.3313604330    0.0063780462   -1.0456993181
C       -0.9688833997    0.4238449043    0.2667864177
C        1.2252907343   -0.8751745220    0.9340981728
C        0.5210116460    0.2411922728    0.1856034281
O        1.2270136843    1.4713677818    0.2324372963
H       -0.4147263561   -1.4142836227    2.3579428789
H        1.2473819924   -1.9077765731    2.9210750276
H        1.6398220794   -3.0688258373    0.6826149049
H       -0.0278489745   -2.5626996034    0.1514566996
H       -0.4790276803   -1.0114782402   -1.3929533020
H       -0.2747077824    0.7542454283   -1.8317672298
H       -1.3231564408    1.4459856975    0.3530723006
H       -1.5558878831   -0.3132106859    0.8063814202
H        2.2928008336   -0.6886294165    1.0257471098
H        1.9796080448    1.3986529434   -0.3765873150
17   
torsion grid (-75,)
C        0.5088121935   -1.7454648150    1.9964966717
C        1.0346972876   -2.3366851117    0.7049094108
C       -0.4374940885   -0.0161273702   -0.9549365897
C       -0.9543407040    0.5844950836    0.3466510741
C        1.1937606575   -0.8570286370    0.9803850727
C        0.5003648544    0.2500873262    0.2016759534
O        1.3144540705    1.4078332129    0.0734049992
H       -0.5681824096   -1.6610532941    2.1052400183
H        1.0331699838   -1.9617786815    2.9227669014
H        1.9210523129   -2.9639948615    0.7400905496
H        0.3042550138   -2.6429799476   -0.0379918995
H       -0.7080240327   -1.0417352654   -1.1876835768
H       -0.3626461013    0.6443023785   -1.8139987025
H       -1.2054991117    1.6403830447    0.3488859746
H       -1.5696079013   -0.0372563843    0.9890846542
H        2.1958839711   -0.5479997818    1.2658944590
H        2.0095415703    1.2027749592   -0.5729276334
17   
torsion grid (-60,)
C        0.4259797930   -1.8167580745    1.8910438955
C        1.1872450113   -2.3020986628    0.6698504081
C       -0.5267838720   -0.0484170717   -0.8567994901
C       -0.9223737003    0.7024005970    0.4143907063
C        1.1724084533   -0.8318587484    1.0208888554
C        0.4928184774    0.2570554490    0.2152142162
O        1.3718750084    1.3369801084   -0.0737816170
H       -0.6588464751   -1.8312325473    1.8333863135
H        0.8231952084   -2.0358523212    2.8775430998
H        2.1110747106   -2.8545437540    0.8172395173
H        0.6036970661   -2.6265696534   -0.1866884802
H       -0.8809953523   -1.0692445267   -0.9722872783
H       -0.4661303951    0.5251005103   -1.7767205670
H       -1.1059216232    1.7688331836    0.3303528779
H       -1.5293240001    0.1833702356    1.1492633704
H        2.0868855150   -0.4516448341    1.4696831873
H        2.0253937409    1.0122519652   -0.7146316780
17   
torsion grid (-45,)
C        0.3659256901   -1.8711897245    1.7859605912
C        1.3028495587   -2.2482895539    0.6509054106
C       -0.6015867158   -0.0806168645   -0.7651081108
C       -0.8853463173    0.7876261869    0.4619032553
C        1.1515536116   -0.8018610629    1.0655634696
C        0.4927110788    0.2580970453    0.2192510342
O        1.4069694876    1.2612904119   -0.2030705243
H       -0.7008800360   -1.9436286648    1.5916491723
H        0.6527647596   -2.1200390158    2.8030189574
H        2.2315097997   -2.7580074435    0.8915280207
H        0.8505876656   -2.5525425706   -0.2887657043
H       -1.0105552435   -1.0877758517   -0.7788344341
H       -0.5672089654    0.4167532934   -1.7293310953
H       -1.0291597777    1.8512653711    0.3005989647
H       -1.4647760997    0.3555091799    1.2717310959
H        1.9772286826   -0.3860440279    1.6389742536
H        2.0376103875    0.8372251466   -0.8080270197
17   
torsion grid (-30,)
C        1.4956130543   -1.9863360965    0.7024229291
C        1.1911490745   -1.3299782104    2.0365307739
C        0.5054518963    0.8799692171   -0.2341660879
C       -0.2530943232   -0.0086852920   -1.2196103303
C        0.1195347385   -1.4281006093    0.9699220615
C       -0.4107058517   -0.2180077957    0.2541190593
O       -1.6733936900    0.2030098846    0.7493198417
H        2.1486636260   -1.4521775035    0.0180377242
H        1.6060106625   -3.0659835519    0.6717923785
H        1.1067834444   -1.9606369900    2.9168684655
H        1.6258309433   -0.3506936921    2.2179451518
H        1.5825574986    0.7571414906   -0.1571819709
H        0.1489908496    1.8979042300   -0.1117086217
H       -1.0969674011    0.4300487885   -1.7425814024
H        0.3124679466   -0.7476539940   -1.7789178703
H       -0.6569465172   -2.1709979894    1.1407486018
H       -1.5417483851    0.4689499690    1.6744066335
17   
torsion grid (-15,)
C        1.5626796272   -1.9204015424    0.7572762481
C        1.0909826931   -1.3604238221    2.0838057410
C        0.5369771091    0.8465972992   -0.3272771834
C       -0.3402702718   -0.0130410474   -1.2330939083
C        0.1367075013   -1.4504810251    0.9063861514
C       -0.3829185792   -0.2049465895    0.2519860917
O       -1.5812824373    0.2702553119    0.8456964589
H        2.2541462808   -1.3205361180    0.1735487786
H        1.7311890167   -2.9905764369    0.6837225043
H        0.9568701846   -2.0437162706    2.9172980860
H        1.4520692387   -0.3722927464    2.3572673453
H        1.6106874693    0.6833732648   -0.3425688840
H        0.2324557218    1.8787917112   -0.1846712037
H       -1.2032753107    0.4596998467   -1.6912888209
H        0.1434198044   -0.7830806916   -1.8265643407
H       -0.6142557687   -2.2360247062    0.9632649184
H       -1.3759847131    0.4745754176    1.7731593542
17   
torsion grid (0,)
C        1.6263050663   -1.8577168882    0.8277662003
C        0.9915322015   -1.4040967285    2.1230142112
C        0.5576749851    0.8187421686   -0.4285667529
C       -0.4287721865   -0.0127060647   -1.2388358161
C        0.1684437694   -1.4650123751    0.8456309424
C       -0.3471697215   -0.1894437794    0.2478593277
O       -1.4745507816    0.3319749571    0.9325703763
H        2.3418725386   -1.1910030527    0.3575509702
H        1.8580033370   -2.9124681333    0.7125222553
H        0.8047873426   -2.1417657460    2.8978092927
H        1.2753341661   -0.4207163760    2.4901887507
H        1.6178382186    0.6120615480   -0.5385345860
H        0.3074882059    1.8637527484   -0.2733206357
H       -1.3107770849    0.4894047088   -1.6238736835
H       -0.0315406841   -0.8075255032   -1.8631838113
H       -0.5456727556   -2.2840506872    0.7877972030
H       -1.2005990506    0.4883410585    1.8515530930
17   
torsion grid (15,)
C        1.6836112240   -1.7897265241    0.9071488589
C        0.8945199716   -1.4648707052    2.1512442473
C        0.5687772796    0.7887779713   -0.5320083822
C       -0.5153483127   -0.0152126439   -1.2322109413
C        0.2095105861   -1.4723690514    0.7917499550
C       -0.3089474769   -0.1710440446    0.2466164106
O       -1.3606251178    0.3967140898    1.0086447882
H        2.3983316103   -1.0501698417    0.5607322407
H        1.9903710764   -2.8191472016    0.7457409138
H        0.6657290161   -2.2636147001    2.8502350849
H        1.0889656567   -0.5010113947    2.6164240445
H        1.6052919244    0.5307817190   -0.7265099129
H        0.3774155681    1.8469850173   -0.3812590247
H       -1.4094585898    0.5146322093   -1.5454608540
H       -0.2077907398   -0.8356060890   -1.8740643339
H       -0.4512682727   -2.3182930103    0.6145813082
H       -1.0188878375    0.5409460550    1.9063429339
17   
torsion grid (30,)
C        1.7342502388   -1.7115022669    0.9996486966
C        0.7973731122   -1.5493587394    2.1670220123
C        0.5687008078    0.7511271789   -0.6375589460
C       -0.6039589069   -0.0235315366   -1.2118547102
C        0.2586758649   -1.4732605106    0.7465610281
C       -0.2704899164   -0.1513791621    0.2477638163
O       -1.2339959133    0.4730951149    1.0778604259
H        2.4186715497   -0.8951617681    0.7896728151
H        2.1336691071   -2.6996089121    0.7888565084
H        0.5456956326   -2.4204726031    2.7641220487
H        0.8755990311   -0.6275672237    2.7391678267
H        1.5728729995    0.4360358194   -0.9054570246
H        0.4370760684    1.8215440023   -0.5092324338
H       -1.5014375979    0.5360249498   -1.4561983628
H       -0.3919219934   -0.8722486619   -1.8557886290
H       -0.3217761767   -2.3381353063    0.4336603342
H       -0.8088063410    0.6621714803    1.9297019312
17   
torsion grid (45,)
C        1.7756164150   -1.6278177446    1.1184775248
C        0.6931986840   -1.6679628340    2.1654989280
C        0.5494690563    0.7037124526   -0.7379816309
C       -0.7044313513   -0.0342476539   -1.1745686713
C        0.3207806171   -1.4746715625    0.7090790817
C       -0.2330300001   -0.1420213673    0.2482866276
O       -1.0741357511    0.5505554920    1.1543022087
H        2.3961911240   -0.7371258616    1.0691117549
H        2.2895315230   -2.5505273135    0.8634845529
H        0.4491544647   -2.6183966937    2.6302296340
H        0.6020342633   -0.8176436305    2.8358346268
H        1.5109223070    0.3308123283   -1.0793519970
H        0.4771172140    1.7829617365   -0.6370797038
H       -1.5983577525    0.5576475634   -1.3436222410
H       -0.5923105379   -0.9050916063   -1.8142205621
H       -0.1336422296   -2.3423926140    0.2371866365
H       -0.5179104797    0.9099811643    1.8632805675
17   
torsion grid (60,)
C        1.7963494470   -1.5379033212    1.2633148979
C        0.5912763812   -1.7842419720    2.1431303165
C        0.5142251974    0.6500003284   -0.8410981001
C       -0.8143677773   -0.0416001769   -1.1216044169
C        0.3970314113   -1.4684246618    0.6794172449
C       -0.1895733934   -0.1411414076    0.2396736923
O       -0.8632426375    0.6178178656    1.2307855857
H        2.3270545278   -0.5962005575    1.3824474910
H        2.4298577718   -2.3799681654    0.9989882569
H        0.3910684130   -2.7988339677    2.4746133593
H        0.3083015802   -1.0191393809    2.8591616413
H        1.4175962656    0.2259423730   -1.2705485877
H        0.4986034712    1.7338883016   -0.7656339271
H       -1.6949523367    0.5873927525   -1.2040597023
H       -0.8124063887   -0.9262995412   -1.7520568492
H        0.1081012519   -2.3113422463    0.0563751049
H       -0.1947256185    1.1078256326    1.7350413298
17   
torsion grid (75,)
C        1.7895970650   -1.4653512176    1.4104105631
C        0.4995863482   -1.8769014068    2.0958632620
C        0.4751140291    0.6066208629   -0.9482950227
C       -0.9041623186   -0.0408206560   -1.0597273600
C        0.4780557617   -1.4444020726    0.6520090045
C       -0.1323651423   -0.1298883085    0.2227811561
O       -0.6457133621    0.6825815712    1.2669380403
H        2.2237362525   -0.5075470844    1.6888872989
H        2.5190230126   -2.2323655206    1.1670165261
H        0.3453231836   -2.9291811782    2.3162037844
H        0.0667157888   -1.1929668856    2.8184835248
H        1.3071615525    0.1386069060   -1.4671339029
H        0.5071851844    1.6915669062   -0.9005099326
H       -1.7655260304    0.6193467038   -1.0612421232
H       -1.0047764286   -0.9386968305   -1.6628971865
H        0.3544147898   -2.2406551369   -0.0785732667
H        0.0968278800    1.1778252028    1.6477329715
17   
torsion grid (90,)
C        1.7691847832   -1.4220708189    1.5406252459
C        0.4280162520   -1.9457953322    2.0273476932
C        0.4292576064    0.5781756062   -1.0411757948
C       -0.9653206796   -0.0451218687   -0.9867750676
C        0.5639653253   -1.4110546015    0.6247406514
C       -0.0658894416   -0.1061880752    0.2111737029
O       -0.4542411174    0.7411147400    1.2798242341
H        2.1123155349   -0.4735827332    1.9474561536
H        2.5645674870   -2.1337613659    1.3400780362
H        0.3114892985   -3.0178038018    2.1574963102
H       -0.1218829884   -1.3326284209    2.7335731153
H        1.1956079232    0.0802488929   -1.6289322360
H        0.4827894844    1.6632175302   -1.0337201414
H       -1.8098747082    0.6335417350   -0.9239751329
H       -1.1452497581   -0.9606603275   -1.5430284092
H        0.5804117167   -2.1522065783   -0.1714840881
H        0.3350508478    1.2223472748    1.5747230643
17   
torsion grid (105,)
C        1.7404543657   -1.4024995820    1.6582024227
C        0.3722466482   -1.9949390418    1.9462289286
C        0.3760544525    0.5585778655   -1.1226507942
C       -1.0048833761   -0.0562147396   -0.9065089189
C        0.6558492177   -1.3692812023    0.6023915364
C        0.0073773965   -0.0726734648    0.2005169951
O       -0.2851288961    0.8092762966    1.2694726108
H        1.9971630006   -0.4772444634    2.1677084743
H        2.5793573240   -2.0761872581    1.5102409835
H        0.2792752001   -3.0756921425    2.0011506443
H       -0.2748043670   -1.4392772947    2.6171977869
H        1.0808263039    0.0369631707   -1.7646199370
H        0.4312748667    1.6427951519   -1.1618385143
H       -1.8397525027    0.6273151112   -0.7896951990
H       -1.2377948688   -0.9941804834   -1.4023511616
H        0.7925245505   -2.0580858683   -0.2283510837
H        0.5401582505    1.2591197999    1.5108525634
17   
torsion grid (120,)
C        1.6992254423   -1.3951181648    1.7643399105
C        0.3290815316   -2.0379487481    1.8515300285
C        0.3194578117    0.5367009946   -1.1878844304
C       -1.0302557860   -0.0678674478   -0.8151811283
C        0.7490235889   -1.3248993963    0.5867805476
C        0.0817264415   -0.0344621567    0.1923739015
O       -0.1245457675    0.8859781932    1.2473576631
H        1.8606746808   -0.4984390045    2.3557793760
H        2.5709767831   -2.0373344198    1.6778660994
H        0.2641361564   -3.1220620138    1.8356147071
H       -0.4087060409   -1.5386994706    2.4719841244
H        0.9638188986   -0.0103838499   -1.8709970718
H        0.3654734748    1.6182259345   -1.2792808996
H       -1.8536665021    0.6203224638   -0.6525124061
H       -1.3044768878   -1.0290098868   -1.2405002374
H        1.0005930883   -1.9603815022   -0.2592257667
H        0.7276606527    1.3131503303    1.4299029194
17   
torsion grid (135,)
C        1.6382662384   -1.3875829527    1.8626243560
C        0.3023541858   -2.0871670885    1.7425522673
C        0.2596352694    0.5026109259   -1.2390728941
C       -1.0512793103   -0.0674385677   -0.7117526995
C        0.8378197078   -1.2798404900    0.5795776725
C        0.1502307924    0.0045737653    0.1858405716
O        0.0373320889    0.9775561199    1.2067961551
H        1.6797356401   -0.5212399127    2.5154665457
H        2.5435752830   -1.9877810592    1.8479256133
H        0.2879371245   -3.1700379462    1.6584108062
H       -0.5288555853   -1.6558325356    2.2927520719
H        0.8327190145   -0.0850183818   -1.9515322629
H        0.3043787413    1.5777018219   -1.3881883284
H       -1.8529462492    0.6362314679   -0.5106153953
H       -1.3665717448   -1.0480848122   -1.0563206428
H        1.2168135834   -1.8539055625   -0.2624878868
H        0.9190527864    1.3630270632    1.3359713872
17   
torsion grid (150,)
C        1.5507935822   -1.3779034850    1.9536642312
C        0.2964534352   -2.1495569333    1.6186566464
C        0.1969234175    0.4519533169   -1.2737995004
C       -1.0717257405   -0.0476595363   -0.5944231359
C        0.9182697982   -1.2350000347    0.5823363128
C        0.2093756261    0.0413774820    0.1828779303
O        0.2078460017    1.0811475578    1.1441633790
H        1.4459853535   -0.5464460918    2.6432028537
H        2.4900303402   -1.9188207656    2.0265537022
H        0.3688111207   -3.2234325020    1.4711876498
H       -0.6300184569   -1.8094145324    2.0728434847
H        0.6854412656   -0.1936240484   -1.9991573614
H        0.2534958483    1.5148707557   -1.4902242020
H       -1.8347840106    0.6899343811   -0.3658324755
H       -1.4384819904   -1.0385213382   -0.8460267906
H        1.4424947902   -1.7306465211   -0.2309982030
H        1.1192871852    1.4095141501    1.2129228159
17   
torsion grid (165,)
C        1.4386960941   -1.3714562994    2.0313946483
C        0.3135023794   -2.2147028508    1.4834388621
C        0.1303510680    0.3901839516   -1.2906242594
C       -1.0880477758   -0.0110467487   -0.4678889781
C        0.9903439854   -1.1892487368    0.5939084163
C        0.2613377843    0.0739769849    0.1829079065
O        0.3823722585    1.1819612931    1.0600187630
H        1.1752799277   -0.5845704230    2.7306920965
H        2.4011325023   -1.8428900513    2.2087081066
H        0.4978425097   -3.2676426312    1.2890459799
H       -0.6934351263   -1.9802330914    1.8171410023
H        0.5242240356   -0.3235889387   -2.0097392089
H        0.2066384101    1.4335139198   -1.5822922989
H       -1.7996098511    0.7711285755   -0.2218245688
H       -1.5108573952   -0.9994197513   -0.6214578465
H        1.6626354192   -1.5915673471   -0.1603342590
H        1.3177913402    1.4433739999    1.0648529753
17   
torsion grid (180,)
C        1.3124464888   -1.3771298727    2.0898259017
C        0.3543348349   -2.2725049684    1.3430034279
C        0.0586407846    0.3267576644   -1.2895046073
C       -1.0956255601    0.0363475987   -0.3375097381
C        1.0543355616   -1.1403311802    0.6150233285
C        0.3092013472    0.1031559224    0.1850209819
O        0.5507729507    1.2677927668    0.9613483312
H        0.8910461476   -0.6523297357    2.7788928339
H        2.2783362903   -1.7799659415    2.3807480569
H        0.6594844314   -3.2908188027    1.1186933298
H       -0.7054979049   -2.1485127060    1.5448254564
H        0.3553216032   -0.4534513071   -1.9859177456
H        0.1520572648    1.3433308999   -1.6595738067
H       -1.7485621838    0.8647524754   -0.0807026918
H       -1.5729793094   -0.9369347100   -0.3945203776
H        1.8585519673   -1.4410933895   -0.0538510827
H        1.4983328521    1.4687071411    0.8921457388
