16   
torsion grid (-165,)
C        0.3431315119    1.3699550508    2.2672316148
C       -3.3378664239   -2.1102099895   -0.9045607497
C       -0.8002457533   -0.0398298780    0.7598821732
C       -2.2038252891   -0.4933475148    0.3864132740
O       -0.9121659104    0.8506697618    1.8616144233
O       -2.0808955679   -1.6280438674   -0.4601575291
H        0.1595076297    2.0328480294    3.1159987484
H        0.8221660471    1.9440509887    1.4593788580
H        1.0282505807    0.5668786352    2.5792759817
H       -3.1449533237   -2.9791407169   -1.5380387692
H       -3.8770447127   -1.3502805613   -1.4906327096
H       -3.9730308649   -2.4151590996   -0.0588280947
H       -0.3106500679    0.4528666927   -0.0940594889
H       -0.1991364657   -0.9209446495    1.0318815721
H       -2.7521127399    0.3157754120   -0.1199177965
H       -2.7535843077   -0.7512134638    1.3045360615
16   
torsion grid (-150,)
C        0.3429029731    1.3044015241    2.3185760527
C       -3.3325048732   -2.1585071223   -0.8369426502
C       -0.8053205174    0.0344842915    0.6952428917
C       -2.2048693945   -0.4319454552    0.3092428084
O       -0.9072016418    0.7827254544    1.9004198501
O       -2.0811781455   -1.6639425051   -0.3904570089
H        0.1699938820    1.8497545362    3.2493055181
H        0.7636121758    1.9938777848    1.5705653377
H        1.0723698188    0.5007199845    2.5023052804
H       -3.1415357352   -3.1044347564   -1.3491111425
H       -3.8157469227   -1.4609639997   -1.5382304229
H       -4.0176789597   -2.3372718774    0.0058871110
H       -0.3503691543    0.6428745351   -0.1011048291
H       -0.1723297287   -0.8530273301    0.8459814964
H       -2.7209703838    0.3160010900   -0.3116475584
H       -2.7916290505   -0.5698713247    1.2299848349
16   
torsion grid (-135,)
C        0.3380491520    1.2191580638    2.3683139653
C       -3.3217519954   -2.2041188815   -0.7499494316
C       -0.8143072005    0.1238854679    0.6254340636
C       -2.2028906197   -0.3658922070    0.2166162399
O       -0.9085082416    0.7192683090    1.9149190907
O       -2.0764890255   -1.6755135477   -0.3265602871
H        0.1725092958    1.6486103858    3.3591453104
H        0.7280911849    2.0009589250    1.6982955302
H        1.0890856098    0.4178542136    2.4439864424
H       -3.1304429966   -3.2051545298   -1.1435328188
H       -3.7748531652   -1.5872345637   -1.5414183387
H       -4.0334178443   -2.2760711921    0.0868446991
H       -0.4088653410    0.8481866294   -0.0973193527
H       -0.1372592426   -0.7427348464    0.6511461304
H       -2.6712582465    0.3055393189   -0.5190325602
H       -2.8401469815   -0.3818667154    1.1131288867
16   
torsion grid (-120,)
C        0.3272820426    1.1201699367    2.4080658524
C       -3.3049542748   -2.2388933896   -0.6499326382
C       -0.8281571017    0.2171381457    0.5597317808
C       -2.1960398450   -0.3039002093    0.1201032785
O       -0.9155023398    0.6519884082    1.9130882995
O       -2.0666936153   -1.6703694334   -0.2598035708
H        0.1663994102    1.4301975352    3.4432617484
H        0.6948392431    1.9813379733    1.8283074588
H        1.0938606630    0.3305455438    2.3836778550
H       -3.1111542334   -3.2790555536   -0.9222101120
H       -3.7349705440   -1.7146838005   -1.5177567636
H       -4.0371376479   -2.2121713696    0.1716132274
H       -0.4934043702    1.0519562567   -0.0753183874
H       -0.0965233031   -0.5977109949    0.4604187351
H       -2.5946682869    0.2780881270   -0.7252689811
H       -2.8956314544   -0.1997623461    0.9620397866
16   
torsion grid (-105,)
C        0.3118511752    1.0168882262    2.4324740293
C       -3.2840072318   -2.2579606402   -0.5464983337
C       -0.8467136940    0.3046868839    0.5042578698
C       -2.1837858030   -0.2516584796    0.0295101562
O       -0.9244798112    0.5742691530    1.8999613608
O       -2.0549772191   -1.6533975509   -0.1832018107
H        0.1563099261    1.2036609773    3.4976370627
H        0.6494506748    1.9480432434    1.9505282364
H        1.0984245728    0.2564520479    2.3115947717
H       -3.0888817628   -3.3227374162   -0.6942341676
H       -3.6827370183   -1.8332213503   -1.4813276754
H       -4.0417450706   -2.1371034912    0.2426781746
H       -0.5987611323    1.2338773705   -0.0331640384
H       -0.0594924137   -0.4321670121    0.2884644733
H       -2.4954537058    0.2323985416   -0.9097712907
H       -2.9474571439   -0.0371556735    0.7911087512
16   
torsion grid (-90,)
C        0.2992134136    0.9246276883    2.4419639297
C       -3.2669937919   -2.2627526282   -0.4545780096
C       -0.8675577064    0.3772544662    0.4661925007
C       -2.1678202817   -0.2160217238   -0.0454870896
O       -0.9250227843    0.4817855709    1.8830521254
O       -2.0512135557   -1.6323523674   -0.0916458739
H        0.1575033607    0.9843757357    3.5236231412
H        0.5812497343    1.9194334446    2.0619069284
H        1.1188609331    0.2227721946    2.2250222067
H       -3.0794602044   -3.3388958038   -0.4742047051
H       -3.6084238913   -1.9401654446   -1.4510664790
H       -4.0645873479   -2.0500686147    0.2734995292
H       -0.7146547760    1.3775197397    0.0285967004
H       -0.0307497814   -0.2635520592    0.1506417137
H       -2.3831920002    0.1693093114   -1.0557024223
H       -2.9896069782    0.0916053201    0.6182033735
16   
torsion grid (-75,)
C        0.2956285774    0.8516131727    2.4403592583
C       -3.2603439485   -2.2577238171   -0.3819346691
C       -0.8864515268    0.4310828504    0.4448715266
C       -2.1522403875   -0.1963411810   -0.1009760695
O       -0.9065799534    0.3748648055    1.8627078200
O       -2.0659314136   -1.6080493477    0.0150252513
H        0.1852282959    0.7751215171    3.5245950720
H        0.4853819957    1.9033300190    2.1726704493
H        1.1610196167    0.2492127138    2.1242750001
H       -3.0980765482   -3.3316804141   -0.2640660819
H       -3.5070653424   -2.0458640858   -1.4345580616
H       -4.1123358242   -1.9525165750    0.2446877144
H       -0.8249119354    1.4789538961    0.1061710909
H       -0.0124863936   -0.1072704374    0.0461979823
H       -2.2740262885    0.0920862790   -1.1585755603
H       -3.0192645811    0.1880554343    0.4585668466
16   
torsion grid (-60,)
C        0.3094010542    0.8062014465    2.4322126431
C       -3.2725004504   -2.2481508099   -0.3363405639
C       -0.9002920425    0.4602643081    0.4438694704
C       -2.1397288845   -0.1960527810   -0.1307664637
O       -0.8555749008    0.2556706584    1.8446335554
O       -2.1125181806   -1.5868636137    0.1355097738
H        0.2589366610    0.5987815716    3.5036291244
H        0.3660737540    1.8958889022    2.2799545334
H        1.2223261500    0.3485227004    2.0207590943
H       -3.1649910593   -3.3060253156   -0.0856491532
H       -3.3828395646   -2.1474700475   -1.4278998751
H       -4.1824583767   -1.8562925304    0.1438882758
H       -0.9252540764    1.5366119280    0.2029897389
H       -0.0030138065    0.0293203227   -0.0296995387
H       -2.1720055668   -0.0028083340   -1.2164851836
H       -3.0380163676    0.2572764237    0.3194121381
16   
torsion grid (-45,)
C        0.3265373218    0.7669850905    2.4230895818
C       -3.2883252780   -2.2380255197   -0.2968200719
C       -0.9144289701    0.4899075979    0.4481147116
C       -2.1267047296   -0.2010098046   -0.1608066516
O       -0.7939300447    0.1499267654    1.8159619192
O       -2.1707796694   -1.5561625599    0.2425932652
H        0.3465724504    0.4425772727    3.4660900053
H        0.2551939676    1.8658550404    2.3900817155
H        1.2662062470    0.4640830868    1.9350292231
H       -3.2474192691   -3.2653312487    0.0725866339
H       -3.2659268062   -2.2512629620   -1.3981908537
H       -4.2350871462   -1.7777976360    0.0268502028
H       -1.0221054117    1.5789329166    0.3106617991
H       -0.0023172681    0.1761142642   -0.0872250540
H       -2.0723197223   -0.1079983891   -1.2584654502
H       -3.0476213289    0.3080809151    0.1704665930
16   
torsion grid (-30,)
C        0.3497334770    0.7313472622    2.4122420158
C       -3.3104298960   -2.2266004418   -0.2606724558
C       -0.9329303528    0.5226586974    0.4596885787
C       -2.1091286707   -0.2132326405   -0.1938306982
O       -0.7286124516    0.0651170815    1.7818709017
O       -2.2338519609   -1.5211490823    0.3287160390
H        0.4441299129    0.3110721745    3.4162370793
H        0.1699322384    1.8153354853    2.4920840790
H        1.2941591603    0.5747800800    1.8671718544
H       -3.3413676624   -3.2138816476    0.2060894041
H       -3.1740657410   -2.3471317826   -1.3472316003
H       -4.2708061266   -1.7162367022   -0.0852842168
H       -1.1313170334    1.6068629924    0.4341741701
H       -0.0137627554    0.3457740026   -0.1243078625
H       -1.9589650784   -0.2278208210   -1.2859595156
H       -3.0451727169    0.3379801719   -0.0009702035
16   
torsion grid (-15,)
C        0.3780125490    0.7018509446    2.3979137476
C       -3.3380285039   -2.2121956104   -0.2305751702
C       -0.9553858116    0.5524423222    0.4772380121
C       -2.0872099015   -0.2311159928   -0.2238146205
O       -0.6586967258   -0.0044835687    1.7425711482
O       -2.3024033181   -1.4818162740    0.3996430024
H        0.5477456333    0.2057704887    3.3563829407
H        0.1034747448    1.7530274293    2.5811270310
H        1.3119902908    0.6838199153    1.8136434121
H       -3.4429406324   -3.1538853541    0.3132834431
H       -3.1010470189   -2.4303481420   -1.2842161667
H       -4.2957069834   -1.6684672942   -0.1956066185
H       -1.2511099701    1.6096899130    0.5745763844
H       -0.0465303665    0.5296583091   -0.1470496172
H       -1.8332088081   -0.3629194218   -1.2881507087
H       -3.0214108352    0.3538471655   -0.1869486504
16   
torsion grid (0,)
C        0.4092042247    0.6787169071    2.3788476592
C       -3.3690213335   -2.1934726957   -0.2068998797
C       -0.9803271181    0.5742145041    0.4964687381
C       -2.0623892470   -0.2502113655   -0.2458423852
O       -0.5815361303   -0.0640904146    1.6936294191
O       -2.3790494201   -1.4336203290    0.4605078866
H        0.6561410374    0.1227443969    3.2863099369
H        0.0454509394    1.6803591158    2.6590120192
H        1.3206755935    0.7981828878    1.7713474868
H       -3.5507032885   -3.0848943276    0.3980216946
H       -3.0365020300   -2.5023266530   -1.2109595112
H       -4.3112035073   -1.6317531603   -0.3111712202
H       -1.3725481400    1.5793000044    0.7223205692
H       -0.1067061635    0.7132062078   -0.1611713267
H       -1.7040495848   -0.5037861760   -1.2569485830
H       -2.9698914895    0.3623059275   -0.3734549341
16   
torsion grid (15,)
C        0.4395508364    0.6596187508    2.3548751859
C       -3.3995653091   -2.1699973830   -0.1875011002
C       -1.0084386648    0.5888549610    0.5143298453
C       -2.0341590134   -0.2674835630   -0.2609536298
O       -0.5010105255   -0.1125910440    1.6322496291
O       -2.4600919357   -1.3736530295    0.5099060725
H        0.7733230387    0.0510787159    3.1985836454
H       -0.0098100544    1.5897341450    2.7382448911
H        1.3116672043    0.9248823737    1.7360405721
H       -3.6685190050   -2.9991717038    0.4710599579
H       -2.9738805246   -2.5749645884   -1.1195988404
H       -4.3092574984   -1.6018055059   -0.4395449910
H       -1.4887171868    1.5188426054    0.8618053240
H       -0.1928691615    0.8838993763   -0.1657340013
H       -1.5792261431   -0.6352887118   -1.1958542199
H       -2.8914517146    0.3629194309   -0.5478907715
16   
torsion grid (30,)
C        0.4705352450    0.6477206005    2.3273123924
C       -3.4312173718   -2.1432888696   -0.1754136813
C       -1.0424253054    0.5978623902    0.5359276847
C       -1.9996544980   -0.2879797890   -0.2705467260
O       -0.4232175683   -0.1447477054    1.5676123120
O       -2.5392576732   -1.3110493832    0.5427294753
H        0.8912313664    0.0033913995    3.1028037862
H       -0.0479703361    1.4938282680    2.8056579871
H        1.2899219009    1.0469447341    1.7084734806
H       -3.7884546544   -2.9065171662    0.5198534070
H       -2.9286306388   -2.6363052298   -1.0227047569
H       -4.2940512153   -1.5788264057   -0.5635320580
H       -1.6022069143    1.4351627468    0.9862562115
H       -0.2977300940    1.0351736670   -0.1494144713
H       -1.4567533312   -0.7508610505   -1.1121062345
H       -2.7925745691    0.3443666228   -0.7028912395
16   
torsion grid (45,)
C        0.5039786059    0.6453703968    2.2990189900
C       -3.4657676971   -2.1163851317   -0.1727764448
C       -1.0740621825    0.5993327954    0.5597748236
C       -1.9670693939   -0.3104841841   -0.2724152400
O       -0.3380264595   -0.1626446152    1.4971741631
O       -2.6266824202   -1.2436137390    0.5614046231
H        1.0202117253   -0.0197092480    2.9951968211
H       -0.0759123367    1.3852263339    2.8728374949
H        1.2517661708    1.1821841187    1.6937591396
H       -3.9210318550   -2.8036372297    0.5440988589
H       -2.8930430092   -2.6972839719   -0.9126892235
H       -4.2624555067   -1.5685594723   -0.7008581042
H       -1.6949110136    1.3365788739    1.0964522064
H       -0.4077351215    1.1576783021   -0.1189969417
H       -1.3550253378   -0.8524328517   -1.0131590253
H       -2.6866898259    0.3132544523   -0.8288045716
16   
torsion grid (60,)
C        0.5371954134    0.6501075040    2.2729983207
C       -3.5002948110   -2.0920576207   -0.1771255813
C       -1.0984955852    0.5960806998    0.5823951992
C       -1.9415256904   -0.3318627345   -0.2692987719
O       -0.2426363535   -0.1643331322    1.4162318894
O       -2.7254571471   -1.1668599539    0.5639112893
H        1.1579925768   -0.0172787628    2.8752523335
H       -0.0964440597    1.2521777091    2.9424825579
H        1.1899702790    1.3313311688    1.7041107601
H       -4.0640470476   -2.6899670750    0.5427293299
H       -2.8636873929   -2.7599466326   -0.7778350592
H       -4.2067364224   -1.5829153690   -0.8520538204
H       -1.7574366757    1.2314905945    1.1965106417
H       -0.5165717817    1.2565780746   -0.0826433066
H       -1.2835933428   -0.9448948868   -0.9067966006
H       -2.5806876167    0.2772252465   -0.9308516124
16   
torsion grid (75,)
C        0.5751201076    0.6601686650    2.2450087429
C       -3.5398387387   -2.0662061283   -0.1866608636
C       -1.1185566647    0.5900778388    0.6071183864
C       -1.9201322310   -0.3554054494   -0.2631502865
O       -0.1452735094   -0.1468516611    1.3306726698
O       -2.8272329743   -1.0864429437    0.5471758432
H        1.2979962608    0.0127156452    2.7468679262
H       -0.0906362841    1.1071088974    2.9991395393
H        1.1160671619    1.4711717925    1.7317588661
H       -4.2108474619   -2.5692042096    0.5135877947
H       -2.8606881088   -2.8102417499   -0.6303564611
H       -4.1377551204   -1.6135947001   -0.9937631413
H       -1.7987739575    1.1165643091    1.2946454511
H       -0.6282239605    1.3441775529   -0.0311829075
H       -1.2329711918   -1.0359087659   -0.7897449604
H       -2.4707089847    0.2267457367   -1.0210990299
16   
torsion grid (90,)
C        0.6272543560    0.6998289406    2.2126858526
C       -3.5950340516   -2.0379685696   -0.2252846511
C       -1.1413535682    0.5648775749    0.6575460657
C       -1.8940254087   -0.4036242037   -0.2368621091
O       -0.0554540724   -0.1140575652    1.2752718663
O       -2.9207834227   -1.0364869274    0.5161110589
H        1.4443120260    0.1025984972    2.6242325045
H       -0.0364383676    1.0143692749    3.0324802979
H        1.0461621835    1.6008585883    1.7369885728
H       -4.3662681231   -2.4571356202    0.4252036702
H       -2.9092865704   -2.8416952479   -0.5339274481
H       -4.0733350982   -1.6216171597   -1.1261207505
H       -1.8330682283    0.9714593282    1.4103246731
H       -0.7569373256    1.4065029299    0.0581366665
H       -1.1872896370   -1.1433833907   -0.6415031706
H       -2.3409103493    0.1403483800   -1.0852655299
16   
torsion grid (105,)
C        0.2874625160    1.6121490206    1.8075179136
C       -3.3134212366   -1.6598435224   -1.1685041866
C       -0.8148587641   -0.3932775094    1.2324693098
C       -2.1527546076   -0.9485493732    0.7587847251
O       -0.9423521917    1.0085745092    1.4452336624
O       -2.0763038450   -1.2182461288   -0.6369699966
H        0.0933088470    2.6770758269    1.9554536841
H        1.0444411665    1.4907148439    1.0177016028
H        0.6866387935    1.1870614237    2.7419983017
H       -3.1588474391   -1.8468647520   -2.2337645918
H       -4.0992402395   -0.8987095845   -1.0471108335
H       -3.6514678391   -2.5906534942   -0.6862054900
H       -0.0519521252   -0.6084240706    0.4702877857
H       -0.5028634097   -0.8775613037    2.1715260422
H       -2.9392110933   -0.2110517806    0.9751611304
H       -2.4010341897   -1.8775192751    1.2964385100
16   
torsion grid (120,)
C        0.3080898506    1.5933026958    1.9108815167
C       -3.3285455916   -1.7630508730   -1.1443338536
C       -0.8026960004   -0.3411668239    1.1422043066
C       -2.1711998373   -0.8613181491    0.7034515226
O       -0.9308987524    1.0254003437    1.5221553498
O       -2.0849983008   -1.2962659789   -0.6499494569
H        0.1151176501    2.6335503311    2.1834222029
H        1.0393047269    1.5662428576    1.0884857221
H        0.7388547186    1.0688567674    2.7781916851
H       -3.1684811838   -2.0733806341   -2.1795665368
H       -4.0941813352   -0.9725214027   -1.1196886034
H       -3.6968627676   -2.6237276096   -0.5643279038
H       -0.1037072193   -0.4457682270    0.2998271892
H       -0.4039177047   -0.9234076957    1.9873329659
H       -2.9022317620   -0.0459824678    0.8031814607
H       -2.5061021488   -1.6958883039    1.3387500024
16   
torsion grid (135,)
C        0.3247018432    1.5585993993    2.0114287470
C       -3.3391066969   -1.8625635550   -1.1046385957
C       -0.7958872684   -0.2788231068    1.0453291724
C       -2.1850390259   -0.7677180702    0.6373805954
O       -0.9211152225    1.0308964995    1.5885470393
O       -2.0920121167   -1.3631972837   -0.6521478513
H        0.1342855275    2.5597923774    2.4050451605
H        1.0360995045    1.6299946746    1.1743556294
H        0.7776521288    0.9414103921    2.8027443459
H       -3.1744633859   -2.2920944854   -2.0955853047
H       -4.0898637199   -1.0609445014   -1.1797791570
H       -3.7289921272   -2.6441909889   -0.4343293293
H       -0.1591500092   -0.2632965558    0.1484459945
H       -0.3275474405   -0.9505416569    1.7807356240
H       -2.8615659452    0.0993147394    0.6120764921
H       -2.5904517033   -1.4917630486    1.3604090068
16   
torsion grid (150,)
C        0.3349285877    1.5130077449    2.0992815072
C       -3.3433972321   -1.9486432478   -1.0549076808
C       -0.7939966698   -0.2121050562    0.9521442841
C       -2.1939919315   -0.6777853846    0.5668807047
O       -0.9166714612    1.0199713675    1.6518760932
O       -2.0931271036   -1.4261057671   -0.6383283748
H        0.1446886942    2.4589455245    2.6117034453
H        1.0208059235    1.6913610458    1.2569347936
H        0.8169870979    0.8146601643    2.8005803938
H       -3.1712048269   -2.4942810382   -1.9856036055
H       -4.0735265896   -1.1454557204   -1.2381739314
H       -3.7628900198   -2.6380436566   -0.3061468710
H       -0.2076443128   -0.0745093350    0.0310890638
H       -0.2779700727   -0.9603283191    1.5727585767
H       -2.8265761985    0.2100710800    0.4164397983
H       -2.6488695424   -1.2858845723    1.3634893720
16   
torsion grid (165,)
C        0.3388119701    1.4659242885    2.1668722787
C       -3.3422039076   -2.0141602804   -1.0048422762
C       -0.7952268151   -0.1512452994    0.8763017780
C       -2.1987980180   -0.6047641840    0.5028312570
O       -0.9181772826    0.9834420124    1.7228655291
O       -2.0868568462   -1.4952554717   -0.5988931742
H        0.1458842801    2.3348809816    2.8003098196
H        0.9736854679    1.7709149944    1.3209379638
H        0.8783035269    0.7061681739    2.7528822555
H       -3.1585680977   -2.6770133223   -1.8536377159
H       -4.0270436080   -1.2108720870   -1.3169499899
H       -3.8215613470   -2.5882157687   -0.1971511617
H       -0.2454218682    0.1066163353   -0.0417912418
H       -0.2469794713   -0.9603993672    1.3826404181
H       -2.7999515884    0.2763190646    0.2308393941
H       -2.6883520525   -1.0974652402    1.3568024351
16   
torsion grid (180,)
C        0.3416489833    1.4196123610    2.2192671383
C       -3.3406834021   -2.0645001969   -0.9562455285
C       -0.7974522410   -0.0969567598    0.8160100865
C       -2.2016277681   -0.5469265747    0.4459622504
O       -0.9174727999    0.9230644273    1.7973777765
O       -2.0816069844   -1.5669477622   -0.5354054497
H        0.1500711290    2.1926653310    2.9670904253
H        0.9016566059    1.8609577527    1.3806681535
H        0.9561805502    0.6260460111    2.6711871048
H       -3.1491177803   -2.8372773562   -1.7043569647
H       -3.9563443346   -1.2714208155   -1.4074985326
H       -3.8995129345   -2.5064409351   -0.1171828354
H       -0.2785083708    0.2793284013   -0.0790329734
H       -0.2221606781   -0.9505113772    1.2063120827
H       -2.7760428121    0.3071722046    0.0553755396
H       -2.7214828199   -0.9229898815    1.3404892960
