12   
torsion grid (-165,)
C        2.9292148252    0.1329019599    0.6115028789
C        3.0043145405    3.5484242624   -0.2796524947
C        2.5361872326    2.3251700334    0.0308507093
C        4.3974751949    4.0436513466   -0.0266529681
N        3.3485619048    1.3405216109    0.6136103250
H        3.5522840044   -0.6460926798    1.0537893277
H        1.9612283153   -0.1754249397    0.1875198909
H        2.3098250230    4.2378679704   -0.7579851611
H        1.5011166752    2.0628888357   -0.2153247308
H        4.8994739432    4.2834953331   -0.9728139067
H        4.3764868400    4.9691882575    0.5619869013
H        4.9906788370    3.2970468587    0.5033872370
12   
torsion grid (-150,)
C        2.9637695941    0.1512270298    0.5693920335
C        2.9847695864    3.5498500469   -0.2555808095
C        2.4817015408    2.3626098502    0.1281594790
C        4.3951599490    4.0130885245   -0.0365980950
N        3.2717717048    1.3777791718    0.7470066776
H        3.5763246022   -0.6220124724    1.0364177974
H        2.1025967976   -0.1815051586   -0.0299707635
H        2.3094282104    4.2299539997   -0.7727261013
H        1.4423047671    2.1127896253   -0.1078419303
H        4.9206252206    4.1226989883   -0.9942141459
H        4.4081055139    4.9982866719    0.4451430275
H        4.9502898493    3.3048725716    0.5810308391
12   
torsion grid (-135,)
C        3.0123984964    0.1894440832    0.5326272320
C        2.9575823002    3.5488240461   -0.2346011391
C        2.4163898830    2.3998812359    0.2049721957
C        4.3887680001    3.9626639102   -0.0478281254
N        3.1703504754    1.4093032095    0.8686435691
H        3.5974690756   -0.5791172529    1.0417437013
H        2.3099926984   -0.1452500785   -0.2455880750
H        2.3029680900    4.2297469312   -0.7761281413
H        1.3681083921    2.1755146570   -0.0078615705
H        4.9261870284    3.9561250174   -1.0052277585
H        4.4498259205    4.9852264708    0.3430398040
H        4.9068069762    3.2872766191    0.6364263163
12   
torsion grid (-120,)
C        3.0750614664    0.2440304549    0.5091080648
C        2.9245817884    3.5435500493   -0.2210593558
C        2.3433447939    2.4308299459    0.2536601871
C        4.3774636120    3.8941652524   -0.0659354650
N        3.0424108044    1.4299468982    0.9704415233
H        3.6059157157   -0.5267400812    1.0725546441
H        2.5951047113   -0.0605733028   -0.4327006114
H        2.2909217064    4.2406982479   -0.7662011294
H        1.2801013952    2.2507763720    0.0883464738
H        4.9064024885    3.8248640952   -1.0255965835
H        4.4936858200    4.9254710495    0.2872968778
H        4.8718530339    3.2226198676    0.6403033830
12   
torsion grid (-105,)
C        3.1395419324    0.3090527748    0.5083584563
C        2.8943772218    3.5287813281   -0.2191054270
C        2.2672561677    2.4510827830    0.2747049883
C        4.3650755299    3.8146166192   -0.0906463570
N        2.8908753206    1.4356024429    1.0429039300
H        3.5994898447   -0.4740979699    1.1160727122
H        2.9232035868    0.0714821730   -0.5432210637
H        2.2847806216    4.2538349303   -0.7549523019
H        1.1890522275    2.3378525370    0.1624855427
H        4.8679656544    3.7629542705   -1.0650654806
H        4.5315892994    4.8258043190    0.2993519966
H        4.8536399294    3.1026726411    0.5793310128
12   
torsion grid (-90,)
C        3.2038340826    0.3815128725    0.5103244988
C        2.8674936365    3.5075683823   -0.2170028996
C        2.1912460179    2.4626424674    0.2843634896
C        4.3513877581    3.7312300249   -0.1110413642
N        2.7415165034    1.4239322994    1.0726106246
H        3.6108907059   -0.4183020227    1.1338428063
H        3.2261586887    0.2388790413   -0.5793525484
H        2.2840423328    4.2683197910   -0.7322610619
H        1.1046051744    2.4243143288    0.2119635996
H        4.8305549716    3.7009275881   -1.0979595809
H        4.5640613580    4.7193433685    0.3143810452
H        4.8310561062    2.9792707076    0.5203493996
12   
torsion grid (-75,)
C        3.2623934524    0.4574536868    0.5120459971
C        2.8455952794    3.4812366326   -0.2133608401
C        2.1209146079    2.4693284217    0.2933910442
C        4.3380057055    3.6508090644   -0.1257322451
N        2.6098196828    1.3969257657    1.0697843117
H        3.6420585719   -0.3630708848    1.1254753226
H        3.4712504921    0.4267908982   -0.5664024779
H        2.2894256163    4.2777874682   -0.7046822464
H        1.0330279486    2.5005207283    0.2433051504
H        4.7992536898    3.6285822381   -1.1211469532
H        4.5888701805    4.6220334950    0.3175804070
H        4.8062321090    2.8712413349    0.4799605384
12   
torsion grid (-60,)
C        3.3145136025    0.5255074728    0.4992326492
C        2.8265361980    3.4604116774   -0.1988526986
C        2.0624746315    2.4730857032    0.3054221963
C        4.3249811560    3.5819059768   -0.1337228204
N        2.5006452334    1.3494247534    1.0302319024
H        3.6712048789   -0.3208112269    1.0904804426
H        3.6729375548    0.6129276426   -0.5355698985
H        2.2930277680    4.2949275015   -0.6512324717
H        0.9777399576    2.5646667924    0.2729130675
H        4.7765438729    3.4860744111   -1.1292849613
H        4.6111138165    4.5684741350    0.2493484942
H        4.7751286661    2.8230440097    0.5112521070
12   
torsion grid (-45,)
C        3.3549309898    0.5725336706    0.4913942815
C        2.8123478639    3.4489993770   -0.1817036998
C        2.0218693049    2.4755643804    0.3153496781
C        4.3144707596    3.5349317450   -0.1457054141
N        2.4099840280    1.2898700105    0.9601044494
H        3.6711150730   -0.3116311405    1.0490782151
H        3.8495933724    0.7697453828   -0.4685258074
H        2.2934060892    4.3186874857   -0.5821086234
H        0.9424369765    2.6164007554    0.2998610862
H        4.7533381260    3.3470106567   -1.1339226808
H        4.6293701272    4.5407498094    0.1540242528
H        4.7539846257    2.8167767160    0.5523722710
12   
torsion grid (-30,)
C        3.3817146528    0.5874245926    0.4900475658
C        2.8022837516    3.4536835604   -0.1560765819
C        1.9997255737    2.4762039870    0.3178367587
C        4.3060149562    3.5152682447   -0.1654616099
N        2.3358668785    1.2234751863    0.8548572706
H        3.6240110516   -0.3494674845    0.9964716370
H        4.0282931047    0.8854195653   -0.3435257621
H        2.2882493859    4.3545853344   -0.4879975528
H        0.9258539969    2.6542721131    0.3242782681
H        4.7202790509    3.2273812141   -1.1403612831
H        4.6450098179    4.5371347652    0.0341039139
H        4.7495451154    2.8542577705    0.5860453846
12   
torsion grid (-15,)
C        3.2669036494    0.6852982167    0.8415274165
C        3.0342537885    3.3070612380   -0.6373868596
C        2.2847667322    2.1849599700   -0.7059314459
C        4.0939472399    3.6807143068    0.3637834409
N        2.3042160212    1.0085991496    0.0641858091
H        3.1593636005   -0.2244276741    1.4368905426
H        4.2213118229    1.2141074897    0.9245295424
H        2.7833486602    4.0703209526   -1.3723920589
H        1.5246343520    2.1429022441   -1.4839351297
H        4.2092717976    4.7672660410    0.4130608060
H        3.8507727762    3.3185735765    1.3690613349
H        5.0740568955    3.2642633380    0.0968246105
12   
torsion grid (0,)
C        3.2866310770    0.6735625153    0.8340988109
C        2.9747364442    3.3390370646   -0.5890456810
C        2.3029317583    2.1753606491   -0.7281710316
C        4.1117588680    3.6749063417    0.3383199256
N        2.4300095888    0.9307467764   -0.0811155132
H        3.2849570906   -0.3331327894    1.2591570624
H        4.0280257962    1.3680460571    1.2375848279
H        2.6388178471    4.1403615798   -1.2451282469
H        1.5062149096    2.1557528479   -1.4695877149
H        4.4319910642    4.7106764396    0.2006738337
H        3.8275329042    3.5524726174    1.3909981893
H        4.9832399878    3.0318487495    0.1624335465
12   
torsion grid (15,)
C        3.2952498350    0.6725875553    0.8114355047
C        2.9269134110    3.3554310310   -0.5233585569
C        2.3243017506    2.1671809962   -0.7479783159
C        4.1346763389    3.6622889128    0.3204845541
N        2.5745845012    0.8868895534   -0.2231025970
H        3.4711796467   -0.3647256385    1.1058080565
H        3.7107701976    1.4440491136    1.4668783685
H        2.5162223472    4.1907069558   -1.0885107523
H        1.4907359754    2.1581813891   -1.4479400316
H        4.6157863089    4.5840681848   -0.0188967865
H        3.8702353090    3.8064986520    1.3762179429
H        4.8761917147    2.8564821435    0.2791806220
12   
torsion grid (30,)
C        3.2832692927    0.6776885346    0.7994416738
C        2.9047049303    3.3597748092   -0.4779616335
C        2.3403793390    2.1638680046   -0.7527397609
C        4.1563709345    3.6524718322    0.3048212321
N        2.7111674893    0.8793749244   -0.3245984238
H        3.6092454519   -0.3359252315    1.0428883756
H        3.4189718011    1.4440891265    1.5714028695
H        2.4413483129    4.2142098713   -0.9691521327
H        1.4811271484    2.1451568793   -1.4207856831
H        4.7044741635    4.4826129929   -0.1527850869
H        3.9319127829    3.9502089549    1.3372427251
H        4.8238756898    2.7861081505    0.3524438535
12   
torsion grid (45,)
C        3.2594491484    0.6600802384    0.7914744924
C        2.8985711792    3.3699419570   -0.4526834252
C        2.3573092019    2.1680088435   -0.7388410998
C        4.1770584350    3.6609204961    0.2861367578
N        2.8394813411    0.8960785294   -0.3896762897
H        3.6824505375   -0.3220194582    1.0134680562
H        3.1856179536    1.3785249171    1.6181643135
H        2.3895234853    4.2305565637   -0.8841865546
H        1.4758549185    2.1273239805   -1.3765181068
H        4.7563979220    4.4242812388   -0.2451969924
H        3.9815045970    4.0546802641    1.2917232319
H        4.8036286166    2.7712612786    0.3963536253
12   
torsion grid (60,)
C        3.2227759454    0.6096212435    0.7875467340
C        2.9029246000    3.3903715483   -0.4389241761
C        2.3852704542    2.1771231246   -0.7090318584
C        4.1995538582    3.6969060697    0.2604535572
N        2.9616059878    0.9267855545   -0.4184294715
H        3.7032971473   -0.3502313499    0.9896365767
H        2.9786100049    1.2495363058    1.6465100583
H        2.3484116880    4.2441437293   -0.8252968416
H        1.4825803526    2.1017919376   -1.3136548639
H        4.7967306057    4.3982872048   -0.3340013762
H        4.0250000921    4.1751409261    1.2325949670
H        4.8000866000    2.8001625547    0.4328147034
12   
torsion grid (75,)
C        3.1757807189    0.5368669398    0.7842617301
C        2.9142050809    3.4183268731   -0.4289858037
C        2.4266931999    2.1889686721   -0.6675826309
C        4.2254233427    3.7540343760    0.2280751343
N        3.0807982616    0.9651028532   -0.4103617343
H        3.6912837550   -0.4082094526    0.9707802179
H        2.7656861694    1.0737023061    1.6510042827
H        2.3140656154    4.2551878742   -0.7821303924
H        1.5025083636    2.0700669633   -1.2321389084
H        4.8232800164    4.4070918476   -0.4190878058
H        4.0705008335    4.2967944375    1.1690876541
H        4.8166219790    2.8617051588    0.4472962653
12   
torsion grid (90,)
C        3.1143909517    0.4635230604    0.7914051639
C        2.9345394410    3.4460954392   -0.4277129013
C        2.4791248230    2.1986872178   -0.6203827682
C        4.2569922900    3.8177702183    0.1856150928
N        3.1957448121    1.0074608443   -0.3549163974
H        3.6612975689   -0.4644708551    0.9755089304
H        2.5260573229    0.8807830376    1.6208612587
H        2.2933382956    4.2597986203   -0.7614744204
H        1.5331293288    2.0314115037   -1.1347864212
H        4.8161853515    4.4882086840   -0.4780097941
H        4.1202231441    4.3521302575    1.1344460561
H        4.8758240066    2.9382408210    0.3796642094
12   
torsion grid (105,)
C        3.0486830116    0.3923633985    0.7939012287
C        2.9590255303    3.4695083409   -0.4222793155
C        2.5351756624    2.2054333891   -0.5672958191
C        4.2923355507    3.8813066568    0.1379565300
N        3.3055074502    1.0554369726   -0.2601683896
H        3.6335547322   -0.5053219724    1.0090287732
H        2.2679985697    0.6722277379    1.5158910734
H        2.2795120057    4.2586701849   -0.7383923847
H        1.5630904788    1.9949046285   -1.0130155518
H        4.7978522896    4.5817025397   -0.5374868134
H        4.1786098885    4.3949401015    1.1014438805
H        4.9455021665    3.0184668711    0.2906347969
12   
torsion grid (120,)
C        2.9854400617    0.3262023598    0.7907656903
C        2.9853346816    3.4878470538   -0.4119897543
C        2.5838187370    2.2103458803   -0.5020832982
C        4.3283112703    3.9392316986    0.0885357599
N        3.3914246495    1.1099462474   -0.1264117831
H        3.6073052826   -0.5280133847    1.0681906678
H        2.0345290244    0.4534029106    1.3290348684
H        2.2765080187    4.2539128392   -0.7209043659
H        1.5852008295    1.9710385451   -0.8704970948
H        4.7755739502    4.6670154294   -0.5986027208
H        4.2413394012    4.4346421305    1.0645136588
H        5.0120614295    3.0940671389    0.1996663806
12   
torsion grid (135,)
C        2.9375462413    0.2580745167    0.7678693782
C        3.0062636578    3.5041891466   -0.3875943606
C        2.6134352113    2.2192156162   -0.4142873986
C        4.3581190804    3.9907649299    0.0484916598
N        3.4396892390    1.1623542728    0.0221866611
H        3.5755761596   -0.5590431853    1.1105503220
H        1.8852015744    0.2442292408    1.0894159781
H        2.2794596041    4.2513006805   -0.7022489231
H        1.5947999326    1.9676669158   -0.7202908961
H        4.7784536620    4.6839167519   -0.6897490954
H        4.2892150185    4.5401465906    0.9965992954
H        5.0490879552    3.1568233726    0.1892753881
12   
torsion grid (150,)
C        2.9109582127    0.1996488331    0.7353657962
C        3.0177170518    3.5196410692   -0.3591266862
C        2.6205622306    2.2352921869   -0.3082415295
C        4.3773353518    4.0294312522    0.0194182865
N        3.4536171994    1.2110504328    0.1755171701
H        3.5484707495   -0.5964731344    1.1239576499
H        1.8231933206    0.0746723939    0.8481199908
H        2.2866743035    4.2508157012   -0.7012184339
H        1.5928841424    1.9747271523   -0.5810713119
H        4.8006686697    4.6383561588   -0.7885772918
H        4.3165788795    4.6765321537    0.9041362022
H        5.0581872248    3.2059446494    0.2419381663
12   
torsion grid (165,)
C        2.9020227755    0.1578341082    0.6969620222
C        3.0207902743    3.5333177503   -0.3314321818
C        2.6076902548    2.2596108227   -0.1938634594
C        4.3893731883    4.0510796770   -0.0011920778
N        3.4399129948    1.2567647142    0.3265199445
H        3.5340835185   -0.6294042135    1.1109912612
H        1.8235726828   -0.0492120457    0.6201360270
H        2.2961492818    4.2504061053   -0.7150076277
H        1.5761922840    1.9940537419   -0.4512662285
H        4.8325705526    4.5510175013   -0.8713611238
H        4.3356815841    4.8004205944    0.7990289697
H        5.0488079445    3.2437500929    0.3207024832
12   
torsion grid (180,)
C        2.9087116087    0.1352194057    0.6549444822
C        3.0161459184    3.5431289556   -0.3049928627
C        2.5786352985    2.2902034160   -0.0787045933
C        4.3955921762    4.0560041726   -0.0156943864
N        3.4043397461    1.2999294123    0.4728806696
H        3.5363262926   -0.6479305768    1.0830468405
H        1.8708518329   -0.1314185659    0.4026108848
H        2.3046711029    4.2460268860   -0.7366369574
H        1.5455483754    2.0231394058   -0.3294926843
H        4.8676871293    4.4295041646   -0.9332071504
H        4.3535105591    4.9012301504    0.6828903085
H        5.0248272960    3.2746020227    0.4125734576
