17   
torsion grid (-165,)
C        0.1202023118   -3.7043264807   -0.4104394580
C        0.0541039917   -0.2094000485    1.0674947549
C       -0.1616842019   -1.5460047242    1.7915557328
C        1.5667054740    0.0030741073    1.2162657626
C        1.1287936417   -2.2947363443    1.4505215687
N        1.1023631818   -2.9209916058    0.1146878966
O       -0.9330024679   -4.0122787582    0.1376623607
O        2.1501231197   -1.3102979474    1.4226823597
H        0.3778911847   -4.0508605455   -1.4307803042
H       -0.2270028496   -0.2989417696    0.0143135229
H       -0.5233830151    0.6086600575    1.5050022709
H       -0.1888244241   -1.3984577756    2.8763565505
H       -1.0539478973   -2.0888950939    1.4857919635
H        2.0302472896    0.4561161169    0.3345044925
H        1.8118415747    0.6129704538    2.0928981555
H        1.4039282484   -3.0449881456    2.1979597601
H        1.9547669717   -2.8006666908   -0.4199788204
17   
torsion grid (-150,)
C        4.2903184405   -1.5729199751    0.3072560244
C        0.9801623700   -0.1355293286    0.7360209802
C        1.2354663265   -1.6465387230    0.6230540444
C        1.0687289745    0.1130402412    2.2521981342
C        2.2060374017   -1.8805103602    1.7805445364
N        3.6008286716   -1.5019710889    1.4816705397
O        3.8783943020   -1.9891688702   -0.7694881751
O        1.7534105224   -1.0330482011    2.8244470121
H        5.3241131713   -1.1932680312    0.4309038724
H        1.7562618320    0.4182442072    0.2008081401
H        0.0112702737    0.1586269742    0.3254254098
H        0.3233400067   -2.2111283700    0.8415665189
H        1.6341937204   -1.9583315503   -0.3396761222
H        1.6258486873    1.0217514193    2.5023988667
H        0.0833349458    0.1655226793    2.7261167449
H        2.1861064527   -2.9041783320    2.1660393166
H        4.1081423549   -1.1582833311    2.2892282959
17   
torsion grid (-135,)
C        4.2476521889   -1.4262848837    0.3278203869
C        0.9870465024   -0.1855997675    0.6981174267
C        1.2209107195   -1.7039494716    0.6451911563
C        1.1223775175    0.1359087057    2.2006512757
C        2.1859682804   -1.9060531899    1.8115251653
N        3.5914477470   -1.5729175501    1.5161258272
O        3.7871148109   -1.5460147067   -0.8010266450
O        1.7242571207   -1.0280712885    2.8263070839
H        5.3116396778   -1.1667716006    0.4981800696
H        1.7526000911    0.3287298253    0.1118033350
H        0.0092668908    0.0997239933    0.3026112018
H        0.3029465155   -2.2469908776    0.8913212164
H        1.6099815458   -2.0511122272   -0.3089832714
H        1.7540174074    1.0109159717    2.3870178332
H        0.1557854740    0.2917623919    2.6890541712
H        2.1523358982   -2.9146239355    2.2336755161
H        4.1506100660   -1.4263420294    2.3491223905
17   
torsion grid (-120,)
C        4.2230515437   -1.3167200650    0.3700504242
C        0.9684369673   -0.2220596294    0.6694689198
C        1.2183914869   -1.7398875434    0.6578862468
C        1.1641264080    0.1612591097    2.1526014191
C        2.1777535118   -1.9168390815    1.8336116025
N        3.5958146212   -1.6594381028    1.5345614134
O        3.7200424986   -1.1730268346   -0.7373144737
O        1.7234585475   -0.9997621937    2.8179600585
H        5.3093603705   -1.1756738252    0.5385136494
H        1.7012364858    0.2750367018    0.0306777360
H       -0.0303601024    0.0341046679    0.3077738224
H        0.3042991343   -2.2865928510    0.9093666331
H        1.6122518472   -2.1019746330   -0.2892592537
H        1.8459979470    1.0100239073    2.2743992898
H        0.2245314318    0.3921530762    2.6627475439
H        2.1169003623   -2.9086235988    2.2901463422
H        4.1906653925   -1.6796697451    2.3553227657
17   
torsion grid (-105,)
C        4.2152025184   -1.1806732973    0.5062921828
C        0.8375907337   -0.2816589617    0.6559108287
C        1.2297980331   -1.7765236295    0.6239981490
C        1.2941108548    0.1925698829    2.0552370971
C        2.1478077931   -1.9349800886    1.8411798786
N        3.5804576054   -1.7343158936    1.5832075838
O        3.7031120459   -0.7542349476   -0.5206904759
O        1.6667204943   -0.9946839396    2.7895264490
H        5.3121843977   -1.1619167244    0.6625254836
H        1.3575498093    0.2668173761   -0.1302139243
H       -0.2389627538   -0.1531328064    0.5188351162
H        0.3555424883   -2.4091561559    0.7995239782
H        1.7001324451   -2.0720311123   -0.3118765864
H        2.1591437727    0.8634589943    1.9850579848
H        0.5116969915    0.6877119160    2.6343961670
H        2.0540742160   -2.9155894068    2.3139104928
H        4.1797970086   -1.9493518460    2.3716937343
17   
torsion grid (-90,)
C        4.2241561484   -1.1265920108    0.6076083352
C        0.7585670008   -0.3134771099    0.6569557597
C        1.2451188311   -1.7824112165    0.6130645053
C        1.3457924941    0.2333718517    1.9731841297
C        2.1432892177   -1.9232166606    1.8549849402
N        3.5849770815   -1.8362433236    1.5855955205
O        3.7010595497   -0.4699000480   -0.2835788092
O        1.7068474165   -0.9224511356    2.7600832931
H        5.3244219770   -1.2210702226    0.6971234959
H        1.1305391209    0.2508962963   -0.1985796940
H       -0.3335654388   -0.2660315108    0.6626446678
H        0.4058674505   -2.4730631423    0.7281486494
H        1.7690477001   -2.0249408723   -0.3100558769
H        2.2381491630    0.8411637923    1.7838748995
H        0.6389786118    0.8137262922    2.5701314390
H        1.9984565787   -2.8781382906    2.3650036838
H        4.1842555509   -2.2093133292    2.3123252003
17   
torsion grid (-75,)
C        4.2498305851   -1.1039946053    0.6837861552
C        0.7096370224   -0.3344711810    0.6607170619
C        1.2470086667   -1.7847767753    0.6171823171
C        1.3595297757    0.2736229252    1.9164616040
C        2.1553667589   -1.9085605864    1.8591035124
N        3.5906910277   -1.9409473541    1.5409030838
O        3.7350213805   -0.2940952751   -0.0767310355
O        1.8004828105   -0.8420804109    2.7204531782
H        5.3461672643   -1.2566817635    0.7255866707
H        0.9960224796    0.2230238812   -0.2320180602
H       -0.3807273157   -0.3281869616    0.7414144878
H        0.4321908487   -2.5074748235    0.7079285424
H        1.7918350474   -2.0000031340   -0.3012069175
H        2.2183057824    0.8984064681    1.6532805351
H        0.6674508696    0.8503833013    2.5347293406
H        1.9686777772   -2.8299312998    2.4153528907
H        4.1784676730   -2.4219230458    2.2115707726
17   
torsion grid (-60,)
C        4.4164837507   -1.2369314108    0.8380188630
C        0.4581255193   -0.4232092902    0.8041933359
C        1.3195025587   -1.6660878563    0.5245414869
C        1.3456033651    0.3739438817    1.7618930306
C        2.1785303015   -1.8115784271    1.8045936031
N        3.5907385528   -2.0862843585    1.5257178629
O        4.0644799248   -0.2595337298    0.1912168949
O        1.9983505109   -0.6256660082    2.5715299083
H        5.4767322609   -1.5512105053    0.9018300794
H        0.2163029804    0.1333289495   -0.1052541835
H       -0.4781171980   -0.7003129732    1.3000880168
H        0.7262251225   -2.5665863445    0.3475392044
H        1.9644162838   -1.5033232550   -0.3385835132
H        2.0974895867    0.9557514875    1.2191773285
H        0.7900011251    1.0242385304    2.4421107215
H        1.8418292297   -2.6499646505    2.4221201997
H        4.0592645792   -2.7142646799    2.1677813001
17   
torsion grid (-45,)
C        4.4616556538   -1.2185143569    0.9231093370
C        0.4169496407   -0.4455972483    0.8314524734
C        1.2912542782   -1.6693620545    0.5243082894
C        1.3549663605    0.3915880760    1.7028818017
C        2.1888039335   -1.7993908943    1.7787577162
N        3.5782102194   -2.1351331759    1.4386538908
O        4.1638434862   -0.1660443920    0.3776948746
O        2.0833254007   -0.5720425575    2.4889963966
H        5.5113201264   -1.5612949375    1.0129137138
H        0.0966352734    0.0825555586   -0.0707927759
H       -0.4745120591   -0.7330067385    1.3993508579
H        0.7176355422   -2.5826598763    0.3473683308
H        1.9197231732   -1.4844177611   -0.3485453478
H        2.0586058950    0.9697363716    1.0955055630
H        0.8367852429    1.0512985224    2.4034129939
H        1.8489674735   -2.6021456582    2.4412377934
H        4.0117888134   -2.8332595178    2.0322082304
17   
torsion grid (-30,)
C        4.3255062708   -0.9797619275    0.7409726423
C        0.8772923853   -0.3298947179    0.5825775390
C        1.0352590033   -1.8378369422    0.8335159924
C        1.3011121950    0.2763428478    1.9276609127
C        2.2119805205   -1.8906198956    1.8206564592
N        3.5294667142   -2.0186510554    1.1498571792
O        3.9747955525    0.1729979964    0.5344454193
O        2.1116291131   -0.7213048490    2.5969820331
H        5.3679286478   -1.3145983226    0.5681681576
H        1.5573044741   -0.0009536545   -0.2047481409
H       -0.1440424014   -0.0544792632    0.3064709231
H        0.1456059947   -2.2437465515    1.3273206072
H        1.2292053151   -2.4188128751   -0.0702642102
H        1.9048364139    1.1776172536    1.8068005854
H        0.4437618150    0.4872618087    2.5776244460
H        2.1492072257   -2.7537696490    2.4905874853
H        4.0451092144   -2.8574808434    1.3898861086
17   
torsion grid (-15,)
C        4.3667672218   -0.9271984533    0.8266908213
C        0.8769658372   -0.3723534939    0.5638478582
C        0.9984148479   -1.8709769838    0.8825480512
C        1.3041872873    0.2788060316    1.8870243897
C        2.2101825301   -1.8812260434    1.8251558610
N        3.4903510522   -1.9561908814    1.0662409167
O        4.1160618264    0.2687887018    0.8238706801
O        2.0965690404   -0.7116653859    2.5894566903
H        5.3736948393   -1.3138769035    0.5691486005
H        1.5736049916   -0.0965075406   -0.2316159452
H       -0.1321022670   -0.0820591811    0.2603902095
H        0.1183421402   -2.2273132857    1.4293439564
H        1.1471697000   -2.4999745710    0.0021610048
H        1.9234643243    1.1645762197    1.7384491662
H        0.4484374626    0.5207528104    2.5275012978
H        2.2155087714   -2.7364676420    2.5080973230
H        3.9383388482   -2.8648040384    1.1102032579
17   
torsion grid (0,)
C        4.4309729981   -0.9028734259    0.9373274116
C        0.8358468524   -0.4181961428    0.5520559819
C        0.9805698928   -1.9061042040    0.9150023272
C        1.3134089459    0.2896513641    1.8333930041
C        2.2105520185   -1.8614540490    1.8319723605
N        3.4606515331   -1.8716619368    1.0173795031
O        4.3168999335    0.2873051078    1.1867303593
O        2.0589936054   -0.6973761464    2.5881990600
H        5.3767011193   -1.3286221361    0.5426817421
H        1.4924667866   -0.1708867230   -0.2863394700
H       -0.1864662886   -0.1454821522    0.2791619042
H        0.1188307070   -2.2591820771    1.4915996632
H        1.1176103954   -2.5572129472    0.0481448405
H        1.9770567962    1.1314786425    1.6266645487
H        0.4826626902    0.6148366108    2.4681487213
H        2.2747481282   -2.7062816446    2.5253219264
H        3.8044523400   -2.8056287804    0.8210702552
17   
torsion grid (15,)
C        4.5017767735   -0.9037602780    1.0833407346
C        0.7597716289   -0.4736108769    0.5458266523
C        0.9848970058   -1.9490991984    0.9335307040
C        1.3455475897    0.3034708074    1.7492125940
C        2.2124732884   -1.8355732725    1.8488389595
N        3.4439181917   -1.7762812348    1.0170886650
O        4.5598201235    0.1637964520    1.6722195569
O        1.9961436763   -0.6751956854    2.5910043720
H        5.3448799031   -1.2777928601    0.4647817391
H        1.3049116002   -0.2323358264   -0.3700343056
H       -0.2961384538   -0.2481131530    0.3791141886
H        0.1474058893   -2.3391165386    1.5201772123
H        1.1411780407   -2.6048514276    0.0724175098
H        2.0876670068    1.0475032553    1.4459120738
H        0.5793714964    0.7846364673    2.3629436046
H        2.3157649020   -2.6626063280    2.5592194579
H        3.6365697916   -2.6287609427    0.5029204206
17   
torsion grid (30,)
C        1.2199966384   -3.6664780797   -0.3832877179
C        0.3645314974   -0.0322419033    1.0145036237
C       -0.5587563192   -1.1009378519    1.6398876758
C        1.7864888300   -0.5981810036    1.2595695447
C        0.3244666568   -2.3528836264    1.5962175659
N        0.2121323177   -2.9934857583    0.2686202516
O        2.2398908543   -4.1114105554    0.1128335923
O        1.6192799627   -1.8857337239    1.8844852110
H        0.9754057434   -3.7977124315   -1.4586243923
H        0.1695749554    0.0795702637   -0.0559376936
H        0.2233461073    0.9469984507    1.4773802496
H       -0.7736642601   -0.8692409032    2.6859873475
H       -1.5133877562   -1.2180785635    1.1184461747
H        2.3454479137   -0.7151417682    0.3239866357
H        2.3801643258    0.0113283384    1.9453370448
H        0.0894114215   -3.0914010104    2.3663661964
H       -0.4912067552   -2.6049950679   -0.3492727408
17   
torsion grid (45,)
C        1.1478889870   -3.8137467889   -0.3440551309
C        0.3261507921   -0.0002326704    1.0447266296
C       -0.5372319576   -1.1222347414    1.6594444281
C        1.7739539750   -0.5081384551    1.2550689366
C        0.3774793826   -2.3425961311    1.5270933055
N        0.2245248088   -2.9459632291    0.1940892637
O        1.9913205582   -4.4331705730    0.2801495857
O        1.6785710489   -1.8489868593    1.7753875553
H        1.0115430364   -3.9268778804   -1.4395381398
H        0.1081403177    0.1264085451   -0.0202879038
H        0.1507226577    0.9633198302    1.5284436010
H       -0.7146917227   -0.9373176585    2.7215884554
H       -1.5069856953   -1.2520077211    1.1711551621
H        2.3434632421   -0.5166457200    0.3183286817
H        2.3285219739    0.0806940169    1.9907613231
H        0.2022312326   -3.1188874479    2.2738063313
H       -0.2924805036   -2.4036417105   -0.4896635156
17   
torsion grid (60,)
C        0.9924036628   -3.9862310448   -0.3337061069
C        0.3090891587    0.0252898147    1.0335173141
C       -0.4712910732   -1.1422522671    1.6616752898
C        1.7676098868   -0.3584046737    1.3365699131
C        0.4764386045   -2.3217410111    1.4263994547
N        0.2332727129   -2.9309830241    0.1186835779
O        1.6958093939   -4.6980783675    0.3626817832
O        1.7902098467   -1.7856413991    1.5476515776
H        0.8591917305   -4.1567457352   -1.4211570111
H        0.1345720879    0.0747736469   -0.0471158309
H        0.0359087667    0.9958934617    1.4545782639
H       -0.5838459839   -0.9895300572    2.7387102758
H       -1.4637189215   -1.3010495931    1.2329006796
H        2.4515087069   -0.1065820338    0.5195144094
H        2.1300246434    0.1229341614    2.2524768691
H        0.3942970656   -3.1157191081    2.1693586353
H       -0.1383581548   -2.3259579644   -0.6062405253
17   
torsion grid (75,)
C        0.8759157789   -4.1085462717   -0.3015683118
C        0.2860723107    0.0607087992    1.0581889055
C       -0.4296293070   -1.1642978183    1.6491517555
C        1.7537425286   -0.2605008362    1.3676185139
C        0.5609821390   -2.2966065662    1.3520790436
N        0.2966917352   -2.9139178962    0.0592359214
O        1.4164128481   -4.8911154688    0.4625824965
O        1.8606081290   -1.6974840892    1.3985544189
H        0.7590795293   -4.3154574742   -1.3838636950
H        0.1210957388    0.1253911904   -0.0236871391
H       -0.0409222127    1.0052609899    1.5000475298
H       -0.5318429134   -1.0547139476    2.7329645564
H       -1.4198767808   -1.3543075730    1.2294570427
H        2.4494990716    0.1259992091    0.6166037399
H        2.0474291947    0.1332367113    2.3492498083
H        0.5473874878   -3.1013161123    2.0869839067
H        0.0604768560   -2.2923580405   -0.7070999240
17   
torsion grid (90,)
C        0.7656771404   -4.1919069382   -0.2687133409
C        0.2610487740    0.0854043465    1.0852033197
C       -0.3932752511   -1.1911417449    1.6343948407
C        1.7387005868   -0.1826328625    1.3863274443
C        0.6430989163   -2.2729619717    1.2935284014
N        0.3853334761   -2.9007119089    0.0074228661
O        1.1259851676   -5.0175224596    0.5556886481
O        1.9150531097   -1.6084442796    1.2883956931
H        0.6721477932   -4.4281486067   -1.3467813139
H        0.0955532420    0.1762413558    0.0051552818
H       -0.1084461562    0.9989510756    1.5578891263
H       -0.4957866879   -1.1224108603    2.7219247818
H       -1.3749688750   -1.4139394769    1.2116828320
H        2.4244838205    0.2971632435    0.6819710750
H        1.9987992808    0.1413733635    2.4030583233
H        0.6839033419   -3.0832776372    2.0212183491
H        0.2758144547   -2.2860598328   -0.7918677588
17   
torsion grid (105,)
C        0.6534842844   -4.2373813742   -0.2394641335
C        0.2317596461    0.0953811008    1.1106172806
C       -0.3590443521   -1.2251271036    1.6249853285
C        1.7209465935   -0.1193348039    1.3913979193
C        0.7221868436   -2.2532341510    1.2489160501
N        0.4844345079   -2.8910811120   -0.0369034897
O        0.7897891014   -5.0765843361    0.6386463387
O        1.9587688435   -1.5268495258    1.2021285230
H        0.6199541233   -4.5006296725   -1.3144481984
H        0.0536874571    0.2111731005    0.0351501673
H       -0.1718080558    0.9766327920    1.6157450915
H       -0.4602996948   -1.1921115988    2.7146213201
H       -1.3301193504   -1.4831576108    1.1985825815
H        2.3830467372    0.4292912114    0.7156666210
H        1.9703241413    0.1545788120    2.4256871824
H        0.8101020197   -3.0644141860    1.9722269897
H        0.5359092878   -2.2971767363   -0.8570570028
17   
torsion grid (120,)
C        0.5388742638   -4.2302181670   -0.2321406211
C        0.2004545077    0.0776366818    1.1187239336
C       -0.3248466231   -1.2706747643    1.6309586757
C        1.6995720829   -0.0701850071    1.3876182477
C        0.7992293471   -2.2443629782    1.2362515217
N        0.5971435819   -2.8727340544   -0.0649551296
O        0.4283457935   -5.0504607719    0.6690488729
O        1.9996045532   -1.4655650573    1.1834435208
H        0.5766728692   -4.5193560148   -1.3001559379
H        0.0090667900    0.1879993761    0.0452648075
H       -0.2380541162    0.9376816812    1.6311318359
H       -0.4174706386   -1.2502868205    2.7218912794
H       -1.2853278451   -1.5721787083    1.2096473631
H        2.3326518109    0.5120048358    0.7123299653
H        1.9446231704    0.2037742145    2.4226593486
H        0.9189336979   -3.0598644661    1.9511031012
H        0.8336488883   -2.3132351740   -0.8763222155
17   
torsion grid (135,)
C        0.4190678772   -4.1846042964   -0.2346020440
C        0.1679367329    0.0456982526    1.1209629742
C       -0.2877369766   -1.3251194244    1.6397894404
C        1.6743209957   -0.0279427524    1.3772476328
C        0.8794651880   -2.2394091689    1.2338443678
N        0.7071714783   -2.8579373464   -0.0827992472
O        0.0554589383   -4.9307480081    0.6661128227
O        2.0400946010   -1.4095062450    1.1704670733
H        0.5270678758   -4.5215814363   -1.2835899896
H       -0.0372934229    0.1414698404    0.0491606946
H       -0.3066315861    0.8849946362    1.6356347529
H       -0.3738170255   -1.3110424309    2.7314292467
H       -1.2336008430   -1.6750884504    1.2234416424
H        2.2740655813    0.5826471086    0.6968209258
H        1.9158966784    0.2554822899    2.4102988612
H        1.0382861410   -3.0508961921    1.9472423509
H        1.1533698998   -2.3764415709   -0.8549629358
17   
torsion grid (150,)
C        0.3045008119   -4.0822756750   -0.2590032810
C        0.1361084881   -0.0136971082    1.1055577944
C       -0.2488092782   -1.3912685228    1.6622004521
C        1.6460463134    0.0013259613    1.3559704613
C        0.9597133038   -2.2461112383    1.2631312044
N        0.8260817597   -2.8353068511   -0.0771524122
O       -0.2945773976   -4.7151312580    0.6031742606
O        2.0835191308   -1.3720815262    1.2274466202
H        0.4572800998   -4.4644357916   -1.2867732556
H       -0.0777536573    0.0377145374    0.0329638888
H       -0.3799342062    0.8141431983    1.5981948190
H       -0.3232903908   -1.3601495349    2.7543613495
H       -1.1784646232   -1.7990281968    1.2630467494
H        2.2100482268    0.6041706872    0.6387637471
H        1.8803628610    0.3502119304    2.3698459487
H        1.1483244352   -3.0585313368    1.9696641055
H        1.4639662564   -2.4695744694   -0.7748938832
17   
torsion grid (165,)
C        0.2147446918   -3.9675390984   -0.2904365664
C        0.1090746688   -0.0745304466    1.0923478219
C       -0.2130966900   -1.4545586423    1.6829682388
C        1.6194880253    0.0200547200    1.3265965813
C        1.0359163250   -2.2580801099    1.3078280151
N        0.9418143997   -2.8435591681   -0.0400134174
O       -0.5558261609   -4.4890826856    0.5090327758
O        2.1195067812   -1.3395248215    1.2873976214
H        0.3745670815   -4.3612218151   -1.3129465339
H       -0.1196002442   -0.0555456671    0.0223295012
H       -0.4386062797    0.7392131377    1.5742816774
H       -0.2899661706   -1.4029776560    2.7741252298
H       -1.1213865984   -1.9150398453    1.2940219197
H        2.1495621428    0.5994092682    0.5652107858
H        1.8496250535    0.4422354599    2.3125662068
H        1.2550781426   -3.0570475979    2.0220574955
H        1.6822269654   -2.5822302265   -0.6808687837
17   
torsion grid (180,)
C        0.1520293557   -3.8483234584   -0.3389775993
C        0.0851818656   -0.1393925391    1.0745460138
C       -0.1822228396   -1.5044304123    1.7240181846
C        1.5939473874    0.0223966995    1.2851515426
C        1.0934455352   -2.2753374955    1.3709689304
N        1.0356902510   -2.8814627651    0.0295216562
O       -0.7598971135   -4.2774429939    0.3609050133
O        2.1427169775   -1.3187122664    1.3440258029
H        0.3361300163   -4.2140426945   -1.3680975202
H       -0.1577586986   -0.1718950665    0.0082700834
H       -0.4874623560    0.6718682391    1.5308854121
H       -0.2430317325   -1.4113408838    2.8134964556
H       -1.0787589066   -2.0105914113    1.3687120545
H        2.0954808325    0.5628368143    0.4769631783
H        1.8203333112    0.5221360509    2.2345876485
H        1.3426330102   -3.0482556813    2.1042507715
H        1.8246652379   -2.6780353300   -0.5727290589
