21   
torsion grid (-165,)
C        1.9531065652   -1.0867979631   -0.1251309888
C        2.8360890367   -1.8228653694    0.6720374472
C        0.9631015063   -0.3004972816    0.4739239759
C        2.7329995987   -1.7692664858    2.0639109265
C        0.8593427481   -0.2467108906    1.8655404649
C        1.7491701379   -0.9740596240    2.6681845723
C        1.6265981239   -0.9375815801    4.1647293540
N        0.6082874301   -1.9506201395    6.4727442578
O       -0.8614193040   -1.9563556848    4.2214582397
O        1.1005510191   -3.5667347535    4.5335162844
O        0.0689103668   -3.0831785308    7.1545307438
S        0.4840061099   -2.2525942023    4.7264476756
H        2.0338077095   -1.1283753133   -1.2081721617
H        3.6017982928   -2.4405634095    0.2106363648
H        0.2704474646    0.2669078148   -0.1417291314
H        3.4084107486   -2.3537120236    2.6832101830
H        0.0788300053    0.3498173300    2.3305054664
H        1.2009016896    0.0020710804    4.5255703471
H        2.5694263632   -1.1374690004    4.6757905047
H       -0.0768763321   -1.2185225650    6.6850164919
H        0.8429869720   -3.6623703756    7.2689775174
21   
torsion grid (-150,)
C        1.9731406248   -1.0847631601   -0.1237289077
C        2.8253865979   -1.8517678541    0.6777768033
C        1.0002589239   -0.2726874677    0.4689737774
C        2.7081321490   -1.8032637806    2.0687051227
C        0.8833963268   -0.2245852685    1.8597609834
C        1.7418010285   -0.9830525386    2.6679259140
C        1.6032369746   -0.9510923416    4.1628049590
N        0.5012281345   -1.9231309081    6.4620216117
O       -0.9073971090   -1.9152478253    4.1889191291
O        1.0352686114   -3.5581750851    4.5239833641
O        0.2637756161   -3.1358582423    7.1708972655
S        0.4257501292   -2.2402590938    4.7105218744
H        2.0645660438   -1.1221676580   -1.2060648654
H        3.5775123136   -2.4890771554    0.2206554402
H        0.3317969030    0.3190075485   -0.1505943130
H        3.3590364224   -2.4113047595    2.6915277543
H        0.1164120984    0.3926303153    2.3202181767
H        1.1979666132   -0.0042159648    4.5273469892
H        2.5345857558   -1.1761849050    4.6843484641
H       -0.3305017372   -1.3659979929    6.6788175477
H        1.1518539352   -3.5215975473    7.2658501740
21   
torsion grid (-135,)
C        1.9916929856   -1.0644279720   -0.1249272315
C        2.8183197124   -1.8651088064    0.6704960537
C        1.0347389997   -0.2388249046    0.4749599945
C        2.6917952235   -1.8367861776    2.0611370026
C        0.9079955292   -0.2102855793    1.8655017397
C        1.7413085385   -1.0030339242    2.6671141436
C        1.5911402064   -0.9909714160    4.1608435216
N        0.4010086734   -1.9419948759    6.4423382143
O       -0.9431469743   -1.8713627780    4.1830301200
O        0.9539773306   -3.5853861130    4.4636848342
O        0.4731122147   -3.1599369625    7.1707417495
S        0.3812827556   -2.2589126210    4.6859614922
H        2.0905285739   -1.0861758422   -1.2070679915
H        3.5580833474   -2.5132312484    0.2084238933
H        0.3857643595    0.3793039321   -0.1395067743
H        3.3227882380   -2.4711503439    2.6782529349
H        0.1529696958    0.4180109241    2.3307058979
H        1.2040478087   -0.0433812002    4.5411673577
H        2.5152281974   -1.2436998739    4.6837977022
H       -0.5394855274   -1.5927450308    6.6487339814
H        1.4133014258   -3.2321778858    7.4064620600
21   
torsion grid (-120,)
C        2.0056162761   -1.0462366644   -0.1128989053
C        2.8104766562   -1.8773343580    0.6736428840
C        1.0632788104   -0.2097946790    0.4950450384
C        2.6771726895   -1.8683910678    2.0638893883
C        0.9296694589   -0.2006919386    1.8852452486
C        1.7416776654   -1.0238816351    2.6781454033
C        1.5826880092   -1.0296297173    4.1709469554
N        0.3206182994   -1.9747201041    6.4261405413
O       -0.9771099807   -1.8184963843    4.2067518268
O        0.8577250872   -3.6101436185    4.4015029973
O        0.6916112021   -3.1354400785    7.1563410407
S        0.3392246793   -2.2723127564    4.6747334263
H        2.1099505586   -1.0528619899   -1.1947288849
H        3.5385222047   -2.5338725442    0.2048786704
H        0.4310489418    0.4318162607   -0.1127959014
H        3.2908423469   -2.5262745354    2.6738683980
H        0.1859209852    0.4360803946    2.3569852866
H        1.2136776372   -0.0812841751    4.5654825673
H        2.5006284329   -1.3103783175    4.6919301626
H       -0.6734027557   -1.8449696124    6.6383519687
H        1.5718994182   -2.9149970698    7.5045212098
21   
torsion grid (-105,)
C        2.0296547354   -1.0459802214   -0.0767510588
C        2.8017784716   -1.9075777031    0.7098950177
C        1.1020003319   -0.1909235777    0.5277619199
C        2.6498806369   -1.9097822944    2.0981657867
C        0.9498958516   -0.1934484449    1.9161606885
C        1.7293726093   -1.0469525786    2.7095746886
C        1.5481992253   -1.0635270458    4.1998149349
N        0.2441575929   -2.0258397114    6.4180223908
O       -1.0361157662   -1.7927119403    4.2417343842
O        0.7541746917   -3.6285143520    4.3461286841
O        0.9030168935   -3.0760104135    7.1166589292
S        0.2769933797   -2.2877081380    4.6738884555
H        2.1479811968   -1.0434988507   -1.1571454698
H        3.5177069876   -2.5786475863    0.2430253651
H        0.4954928836    0.4741369833   -0.0810850010
H        3.2363539579   -2.5913726047    2.7087721123
H        0.2175829309    0.4581742271    2.3856366769
H        1.1877544462   -0.1137646718    4.5980077430
H        2.4547689299   -1.3656310113    4.7297740325
H       -0.7478709973   -2.1185234484    6.6603515654
H        1.6532949866   -2.6260020341    7.5406940280
21   
torsion grid (-90,)
C        2.0443454506   -1.0366447112   -0.0719843338
C        2.7858335119   -1.9239839636    0.7155452378
C        1.1300637068   -0.1668475728    0.5317359993
C        2.6175342034   -1.9384453367    2.1018401966
C        0.9617008996   -0.1809473672    1.9182992162
C        1.7107821809   -1.0607277174    2.7122513969
C        1.5100110815   -1.0897594192    4.2000158567
N        0.1682531205   -2.0503919376    6.3791215122
O       -1.1067703068   -1.7525529429    4.2285458140
O        0.6321736713   -3.6281299517    4.2729434902
O        1.0786091661   -2.9422206775    7.0222153434
S        0.1984050281   -2.2817743076    4.6398435185
H        2.1757938988   -1.0255904868   -1.1508235909
H        3.4914087682   -2.6068221789    0.2500413136
H        0.5462729634    0.5187873098   -0.0764711260
H        3.1797412660   -2.6409211699    2.7115318337
H        0.2393685930    0.4829649817    2.3860565406
H        1.1717414249   -0.1348511243    4.6054213404
H        2.3999901212   -1.4288110260    4.7357238120
H       -0.7697781787   -2.3556684509    6.6618768223
H        1.6798098803   -2.3377877055    7.4900777595
21   
torsion grid (-75,)
C        2.0555717188   -1.0244896645   -0.0511818978
C        2.7709859465   -1.9409744827    0.7271060734
C        1.1609247729   -0.1406049702    0.5613419436
C        2.5966655266   -1.9711945898    2.1123306806
C        0.9855534612   -0.1691457456    1.9468244595
C        1.7094390044   -1.0788738532    2.7302356667
C        1.5020339352   -1.1251310337    4.2168626573
N        0.1302632611   -2.0937535412    6.3637590337
O       -1.1375002645   -1.7663595125    4.2110728804
O        0.5856834941   -3.6458246453    4.2399209039
O        1.2568408331   -2.7589577760    6.9462978200
S        0.1640105498   -2.2987895870    4.6245313053
H        2.1918877023   -1.0017626629   -1.1292426776
H        3.4610585044   -2.6348935762    0.2548388985
H        0.5971650211    0.5677789446   -0.0395968437
H        3.1374135135   -2.6963323196    2.7147630845
H        0.2780124649    0.5062396080    2.4208698194
H        1.1808686024   -0.1682319317    4.6323744929
H        2.3794088506   -1.4949110831    4.7513791416
H       -0.6974710759   -2.6129939283    6.6788026872
H        1.6925247280   -2.0429965331    7.4396757037
21   
torsion grid (-60,)
C       -3.9052860589   -6.3784196612    5.6538799965
C       -2.6663640644   -7.0150297597    5.7853145492
C       -3.9600657744   -4.9970819891    5.4394136193
C       -1.4861104890   -6.2737209218    5.6982222428
C       -2.7798415568   -4.2552574767    5.3518219193
C       -1.5359594882   -4.8910254272    5.4722214726
C       -0.2681792211   -4.0904963752    5.4036284819
N        1.7541751844   -2.7379633934    6.8625261917
O       -0.6891437809   -2.3484542364    7.4116826684
O        0.4077325473   -4.6037737051    7.9623563691
O        2.6868444484   -3.7111200890    6.3940444713
S        0.1888661238   -3.4687482098    7.0693381487
H       -4.8237307069   -6.9555978853    5.7215619361
H       -2.6197861313   -8.0867406847    5.9589223942
H       -4.9204371977   -4.4976688324    5.3439812071
H       -0.5238776171   -6.7646943591    5.8175904046
H       -2.8222662240   -3.1795039267    5.2017549848
H       -0.3707012790   -3.1960293660    4.7847422356
H        0.5906043842   -4.6789068684    5.0726955195
H        1.7085329051   -2.0227603970    6.1327230516
H        3.1157269586   -4.0105522331    7.2147809099
21   
torsion grid (-45,)
C       -3.9176834190   -6.3533868643    5.6319360840
C       -2.6910332547   -7.0019435229    5.8114528297
C       -3.9478546960   -4.9788300842    5.3737747244
C       -1.4992264103   -6.2789004447    5.7287941574
C       -2.7559361461   -4.2554046711    5.2906266929
C       -1.5239972083   -4.9033591970    5.4592121495
C       -0.2433003332   -4.1227839795    5.3921737469
N        1.7207975731   -2.6863258708    6.8649637840
O       -0.7336387876   -2.3641051880    7.3987963544
O        0.4029205088   -4.5998334259    7.9434445360
O        2.5981599904   -3.5221850190    6.1076949147
S        0.1717350965   -3.4630487794    7.0552123046
H       -4.8454645889   -6.9158527097    5.6961802071
H       -2.6631476229   -8.0682293094    6.0191692103
H       -4.8987240055   -4.4698610035    5.2410366319
H       -0.5469454994   -6.7782533047    5.8862502671
H       -2.7804937238   -3.1844884989    5.1060187437
H       -0.3180416046   -3.2495448126    4.7397243786
H        0.6156664859   -4.7293989127    5.1026855454
H        1.5887281413   -1.8457690315    6.2961306079
H        3.1809087310   -3.8986183668    6.7904813886
21   
torsion grid (-30,)
C       -3.9497194592   -6.3089638566    5.6115301953
C       -2.7457087029   -6.9808959314    5.8488810082
C       -3.9383875006   -4.9437301550    5.3065221740
C       -1.5339137433   -6.2906102769    5.7771532993
C       -2.7264676052   -4.2533427329    5.2345987926
C       -1.5165821672   -4.9248294689    5.4610971129
C       -0.2145472578   -4.1791478123    5.4019242089
N        1.6740209072   -2.6220309937    6.8763521840
O       -0.8017043900   -2.4391672837    7.4179088015
O        0.4329399249   -4.6199275345    7.9485300486
O        2.4761045125   -3.2242612879    5.8572657488
S        0.1590385956   -3.4886771097    7.0643469741
H       -4.8928478618   -6.8462188484    5.6673932578
H       -2.7508883263   -8.0397825264    6.0930133196
H       -4.8718954775   -4.4166041925    5.1289457291
H       -0.5994967568   -6.8071452119    5.9796101590
H       -2.7187009048   -3.1890963727    5.0138174665
H       -0.2470603507   -3.3266523432    4.7197468063
H        0.6347453327   -4.8148311398    5.1543669727
H        1.4295063297   -1.6991288250    6.5063176285
H        3.2026602362   -3.6293031050    6.3625958029
21   
torsion grid (-15,)
C       -3.9720191549   -6.2824522024    5.5997178352
C       -2.7898804578   -6.9676513109    5.9005425396
C       -3.9221831766   -4.9282815737    5.2523082539
C       -1.5629957422   -6.3026389341    5.8492012838
C       -2.6954789833   -4.2625410785    5.2014824738
C       -1.5073408814   -4.9482111597    5.4909746755
C       -0.1891316911   -4.2292971126    5.4493082791
N        1.6633126196   -2.6264496199    6.9358279201
O       -0.8353004088   -2.5270353840    7.4892320042
O        0.4497467477   -4.6766077284    7.9942376330
O        2.3241451072   -2.9643531825    5.7124730141
S        0.1579741494   -3.5419050279    7.1192599805
H       -4.9269331520   -6.8000273325    5.6391804094
H       -2.8239474364   -8.0176375788    6.1783906322
H       -4.8383171342   -4.3900604112    5.0246658135
H       -0.6466423534   -6.8295968904    6.1010378761
H       -2.6596052198   -3.2064897758    4.9467172943
H       -0.1880564131   -3.3843675487    4.7583430314
H        0.6499883052   -4.8863691666    5.2247247503
H        1.3570821789   -1.6587305160    6.7980361431
H        3.1411576361   -3.3959975468    6.0174343797
21   
torsion grid (0,)
C       -3.9693630755   -6.2570872603    5.5765040968
C       -2.8027776377   -6.9540686111    5.9093179672
C       -3.8980882744   -4.9084882948    5.2115175973
C       -1.5664581949   -6.3057231372    5.8730587663
C       -2.6613023772   -4.2608791261    5.1751115468
C       -1.4877815084   -4.9574448143    5.4967003057
C       -0.1602631871   -4.2545903106    5.4676566947
N        1.7008633877   -2.6646728537    6.9612625507
O       -0.8421463581   -2.5110413806    7.4510999492
O        0.3964606744   -4.6567894031    8.0506191416
O        2.2086478273   -2.7766176458    5.6269406794
S        0.1528896610   -3.5438913353    7.1334802959
H       -4.9312289682   -6.7623252891    5.6049366224
H       -2.8562761079   -7.9996396114    6.2004588433
H       -4.8029614716   -4.3619445019    4.9598058565
H       -0.6619711871   -6.8408235842    6.1496493428
H       -2.6060236581   -3.2089791596    4.9074338211
H       -0.1312205941   -3.4235105199    4.7624614269
H        0.6728455617   -4.9302159664    5.2742275287
H        1.4195729723   -1.6818326306    7.0341100193
H        3.0442831603   -3.2579662036    5.7545265108
21   
torsion grid (15,)
C       -4.0004536636   -6.2715049258    5.5650170759
C       -2.8405985759   -6.9702926264    5.9169748390
C       -3.9162980559   -4.9258393386    5.1920677089
C       -1.6002819492   -6.3291514815    5.8926103502
C       -2.6765338652   -4.2833807770    5.1663254679
C       -1.5110736499   -4.9839874486    5.5078693938
C       -0.1803064704   -4.2867394131    5.4911721040
N        1.7230203530   -2.7867892232    6.9979313925
O       -0.8551937696   -2.4694240172    7.3857453325
O        0.2571426056   -4.6354069544    8.1255377718
O        2.0979378538   -2.6734785524    5.6188229246
S        0.1066850772   -3.5556349734    7.1506726133
H       -4.9650472116   -6.7719861414    5.5848352123
H       -2.9026165446   -8.0135382723    6.2145305392
H       -4.8151137630   -4.3765308843    4.9252899179
H       -0.7021821766   -6.8672128345    6.1842475939
H       -2.6124007167   -3.2335693454    4.8927176420
H       -0.1354558283   -3.4620661727    4.7807120902
H        0.6507548054   -4.9717365696    5.3172785612
H        1.5405577862   -1.8177544710    7.2802957987
H        2.9051304631   -3.2139752232    5.5751993563
21   
torsion grid (30,)
C       -4.0227690725   -6.2839527590    5.5485974049
C       -2.8755799505   -6.9912889081    5.9239903643
C       -3.9191511632   -4.9449426746    5.1568971406
C       -1.6287334236   -6.3627640084    5.9034151139
C       -2.6726493246   -4.3154450942    5.1356789737
C       -1.5194471100   -5.0244928483    5.5001877541
C       -0.1815774407   -4.3404832347    5.4924808894
N        1.7545678423   -2.9393247680    6.9910769089
O       -0.8338695071   -2.4847151918    7.3309437696
O        0.1988003128   -4.6549862787    8.1599388318
O        1.9997656897   -2.5589281764    5.6288697136
S        0.1002315378   -3.6040552123    7.1475551131
H       -4.9933030176   -6.7729177584    5.5649197534
H       -2.9524716847   -8.0290676676    6.2368382462
H       -4.8088865272   -4.3900182998    4.8719582226
H       -0.7399622941   -6.9061362587    6.2133409630
H       -2.5935916597   -3.2703324475    4.8484462730
H       -0.1239235454   -3.5155074275    4.7841496732
H        0.6432903722   -5.0366750811    5.3273011730
H        1.6995532581   -2.0460598827    7.4936125530
H        2.7586798808   -3.1180016263    5.3908679164
21   
torsion grid (45,)
C       -4.0383739564   -6.2869009815    5.5344940478
C       -2.9035065687   -7.0012097828    5.9331930742
C       -3.9161237266   -4.9553321566    5.1231157448
C       -1.6492354374   -6.3872731424    5.9163733150
C       -2.6621495445   -4.3408417625    5.1054614546
C       -1.5209665752   -5.0568755757    5.4933212891
C       -0.1755275174   -4.3881044277    5.4923255326
N        1.7629419579   -3.0300288784    6.9437600889
O       -0.8202874719   -2.4722198327    7.2536163546
O        0.1774102077   -4.6167021002    8.1855980766
O        1.9034834866   -2.3967823548    5.6623399853
S        0.0979455183   -3.6103041458    7.1265770896
H       -5.0144547844   -6.7647630319    5.5480138962
H       -2.9956187289   -8.0330479565    6.2612161840
H       -4.7965097529   -4.3949348885    4.8203603138
H       -0.7698754327   -6.9358868057    6.2436832529
H       -2.5678695964   -3.3010571086    4.8039175621
H       -0.1006557498   -3.5781618687    4.7679446437
H        0.6444432591   -5.0971508160    5.3575375170
H        1.8451938931   -2.2660237704    7.6246825050
H        2.6103925219   -2.9219742428    5.2504345946
21   
torsion grid (60,)
C       -4.0418195318   -6.2679200885    5.5417209797
C       -2.9189218253   -6.9842044843    5.9695501480
C       -3.9001115628   -4.9483045427    5.0991282044
C       -1.6578133828   -6.3842262587    5.9505174468
C       -2.6393060585   -4.3480148169    5.0794883491
C       -1.5098591998   -5.0661337196    5.4965532147
C       -0.1570410196   -4.4131960110    5.4972024065
N        1.7797159293   -3.0580520503    6.8832477115
O       -0.7961721913   -2.4492139118    7.2034443595
O        0.2139299120   -4.5642285370    8.1943122448
O        1.8384744302   -2.1783411785    5.7505820226
S        0.1187056481   -3.5898429832    7.1055955032
H       -5.0232643069   -6.7346262564    5.5567402436
H       -3.0255998854   -8.0066265978    6.3217729921
H       -4.7710358843   -4.3859072287    4.7735789641
H       -0.7878379186   -6.9342760608    6.2997718173
H       -2.5307770883   -3.3168377208    4.7540097081
H       -0.0685703675   -3.6220751748    4.7519904091
H        0.6588583234   -5.1313282464    5.3913545164
H        1.9852253087   -2.4694370211    7.6991047850
H        2.4930992101   -2.6176770012    5.1813538531
21   
torsion grid (75,)
C       -3.6729570410   -6.5490690108    5.7555359952
C       -2.3534610256   -7.0079030681    5.8434284309
C       -3.9274226744   -5.1850666662    5.5781630281
C       -1.2887843975   -6.1089877160    5.7608800360
C       -2.8602407232   -4.2840735086    5.4961723675
C       -1.5360088673   -4.7395889860    5.5915438784
C       -0.4041555194   -3.7551543532    5.5410096712
N       -0.9611748722   -3.0129846838    8.1600310925
O        1.0392514502   -4.6835234177    7.5815174045
O        1.1679895894   -2.1838385440    7.0799732002
O       -1.7247701211   -4.1609306259    8.5131093434
S        0.4049113146   -3.4336472616    7.1519068430
H       -4.4990163269   -7.2518159926    5.8222403226
H       -2.1545887398   -8.0668337750    5.9839325016
H       -4.9493034590   -4.8233754209    5.5006048059
H       -0.2661142604   -6.4606765093    5.8615346976
H       -3.0569228211   -3.2230836678    5.3586954414
H       -0.7148734729   -2.7739633360    5.1777560731
H        0.4346932147   -4.1113955297    4.9363125754
H       -0.5603386791   -2.6577888349    9.0335771481
H       -2.5102089133   -4.0908044000    7.9413621236
21   
torsion grid (90,)
C       -3.6563710434   -6.5290124648    5.7909230480
C       -2.3445939529   -7.0159516993    5.7889711647
C       -3.8864403806   -5.1535147049    5.6729388026
C       -1.2667468093   -6.1351935239    5.6755128946
C       -2.8078882092   -4.2703311110    5.5577863238
C       -1.4906869152   -4.7559658430    5.5606770180
C       -0.3372391100   -3.7963360450    5.5027074140
N       -1.0604120905   -3.0160659104    8.0321315448
O        0.9537811901   -4.7337025280    7.6499437803
O        1.1652790266   -2.2396226506    7.1121720524
O       -1.7038901543   -4.1337580722    8.6288434567
S        0.3828406209   -3.4806497076    7.1544128255
H       -4.4933923769   -7.2158930069    5.8824387684
H       -2.1607817746   -8.0825179348    5.8845792617
H       -4.9025855300   -4.7682599813    5.6679482649
H       -0.2485763570   -6.5123683196    5.7062591711
H       -2.9873534555   -3.2010781400    5.4763786638
H       -0.6188012022   -2.8135936044    5.1215193509
H        0.5085083328   -4.1836898284    4.9285260379
H       -0.7253568887   -2.4400445303    8.8103890452
H       -2.4593999057   -4.2967864895    8.0343240460
21   
torsion grid (105,)
C       -3.6508576432   -6.5477255068    5.7575252320
C       -2.3429528828   -7.0398237667    5.6916983024
C       -3.8765950781   -5.1669965525    5.7123091872
C       -1.2646701405   -6.1580526375    5.5852606046
C       -2.7971665434   -4.2850471644    5.6034811733
C       -1.4827594196   -4.7737787520    5.5381893147
C       -0.3232883537   -3.8191708814    5.4926882055
N       -1.1293349254   -2.9672548669    7.9534417363
O        0.7974755755   -4.8027907505    7.7250365519
O        1.2034640360   -2.3387799998    7.1304981624
O       -1.6930842474   -3.9531562726    8.8040428289
S        0.3436353752   -3.5291453982    7.1700319359
H       -4.4886967403   -7.2345799287    5.8423815356
H       -2.1618995303   -8.1104657269    5.7308315085
H       -4.8901798874   -4.7774130516    5.7578767113
H       -0.2486624090   -6.5420156513    5.5636665938
H       -2.9724232450   -3.2127313361    5.5800526038
H       -0.5908590081   -2.8309534212    5.1162720296
H        0.5293330602   -4.2095833041    4.9311530585
H       -0.8124227042   -2.2243775245    8.5838141323
H       -2.4229723924   -4.3165064104    8.2689045728
21   
torsion grid (120,)
C       -3.6476893304   -6.5830799313    5.6720987996
C       -2.3384349311   -7.0679819522    5.5833843555
C       -3.8786876791   -5.2027777744    5.6888675058
C       -1.2642511604   -6.1778576487    5.5131795369
C       -2.8035971966   -4.3126021016    5.6180152589
C       -1.4885423830   -4.7937444194    5.5257990387
C       -0.3306023016   -3.8379876329    5.5051390265
N       -1.1347799871   -2.8932370043    7.9400507605
O        0.6516806889   -4.8538868078    7.7943807963
O        1.2796545225   -2.4512428921    7.1287697425
O       -1.5786906653   -3.6813031010    9.0325294207
S        0.3225206366   -3.5647715151    7.1913528976
H       -4.4831160636   -7.2760456590    5.7267691856
H       -2.1533914100   -8.1386686617    5.5741131841
H       -4.8938823135   -4.8200468981    5.7537196170
H       -0.2469007353   -6.5567857710    5.4684713076
H       -2.9822907546   -3.2411049561    5.6424976337
H       -0.5893147727   -2.8453534417    5.1334098327
H        0.5288171631   -4.2222836249    4.9494393944
H       -0.8094870095   -2.0238021749    8.3734931838
H       -2.3042129822   -4.2062352330    8.6489893072
21   
torsion grid (135,)
C       -3.6627621156   -6.6234009646    5.5657326530
C       -2.3496935949   -7.1026529431    5.5055528252
C       -3.8989258207   -5.2447564818    5.6065242879
C       -1.2778360762   -6.2074670063    5.4836284171
C       -2.8261725075   -4.3498458505    5.5865944796
C       -1.5082471696   -4.8246435094    5.5185619449
C       -0.3540620420   -3.8659963563    5.5236310927
N       -1.0995801073   -2.8688660806    7.9643488278
O        0.5506946549   -4.9123902119    7.8355805092
O        1.3696956496   -2.5869374852    7.1089377889
O       -1.3485940583   -3.4342150723    9.2423816451
S        0.3229254127   -3.6143062357    7.2048018700
H       -4.4970420558   -7.3198581215    5.5802200097
H       -2.1604787823   -8.1723502285    5.4781545131
H       -4.9169877572   -4.8670483753    5.6524314233
H       -0.2581762992   -6.5820081139    5.4559820056
H       -3.0097332197   -3.2797539413    5.6317442432
H       -0.6145197846   -2.8684106773    5.1648979651
H        0.5071700657   -4.2334665563    4.9589016486
H       -0.7998095878   -1.9135093549    8.1800131505
H       -2.0296415578   -4.1059797957    9.0630419551
21   
torsion grid (150,)
C       -3.6848940689   -6.6621342771    5.4727931359
C       -2.3667824112   -7.1303709925    5.4457062576
C       -3.9334630706   -5.2865059038    5.5318410452
C       -1.3020032539   -6.2272190931    5.4738288048
C       -2.8678170531   -4.3839350026    5.5628092905
C       -1.5452328430   -4.8473483840    5.5274953311
C       -0.3985284860   -3.8820785018    5.5749156145
N       -1.1269726843   -2.8576590783    8.0070337914
O        0.4022548054   -4.9563672858    7.9235127665
O        1.4003569032   -2.7186925893    7.1671725554
O       -1.1767059359   -3.1775877952    9.3930404409
S        0.2744443111   -3.6579407177    7.2632625001
H       -4.5135675641   -7.3649902711    5.4483065236
H       -2.1682235523   -8.1979325593    5.4045574312
H       -4.9554255868   -4.9174536155    5.5542548916
H       -0.2789510801   -6.5936484716    5.4698746543
H       -3.0621716793   -3.3163705427    5.6238954946
H       -0.6599044540   -2.8788005620    5.2306936456
H        0.4733442039   -4.2265492730    5.0116771588
H       -0.8934702111   -1.8601409065    8.0120853994
H       -1.7395191738   -3.9713151989    9.4195741808
21   
torsion grid (165,)
C       -3.6915032460   -6.6821619188    5.3977802773
C       -2.3688967110   -7.1381974783    5.4019919723
C       -3.9533776308   -5.3094362036    5.4634650603
C       -1.3134410439   -6.2261078877    5.4671270425
C       -2.8969272758   -4.3983917012    5.5320634749
C       -1.5699600485   -4.8490878908    5.5282797378
C       -0.4328412065   -3.8745841043    5.6086848022
N       -1.1490499768   -2.8958477597    8.0593843103
O        0.3656202169   -4.9780221125    7.9595124111
O        1.3890736835   -2.7604175606    7.2060658066
O       -0.9769230781   -2.9615434672    9.4744271271
S        0.2461846141   -3.6783956276    7.2988362852
H       -4.5129390372   -7.3918628810    5.3443139997
H       -2.1595980867   -8.2035032615    5.3559397886
H       -4.9787000248   -4.9492755508    5.4624384017
H       -0.2874926774   -6.5838289338    5.4865414577
H       -3.1043150104   -3.3331754383    5.5966424692
H       -0.6994288372   -2.8664847832    5.2812641878
H        0.4458172644   -4.1960519301    5.0420628323
H       -1.0430310617   -1.8941996084    7.8698635917
H       -1.4365445306   -3.7860633598    9.7131802298
21   
torsion grid (180,)
C        1.9338070931   -1.0840740010   -0.1233771229
C        2.8477124051   -1.7904381048    0.6657445171
C        0.9250462461   -0.3288986110    0.4843467145
C        2.7565398456   -1.7377883984    2.0584410812
C        0.8329678121   -0.2759769688    1.8768238348
C        1.7539187340   -0.9731752251    2.6710930059
C        1.6439757109   -0.9388810305    4.1688741537
N        0.7079453373   -2.0139132418    6.4789371497
O       -0.8261233517   -1.9858820464    4.2753853101
O        1.1420962409   -3.5921033871    4.4931995106
O       -0.1030496785   -2.9885732749    7.1393842298
S        0.5348088780   -2.2827620905    4.7347715974
H        2.0050006412   -1.1249202126   -1.2071057408
H        3.6280655816   -2.3842889057    0.1976447924
H        0.2083431929    0.2146933851   -0.1252131340
H        3.4561231593   -2.2996262173    2.6718067346
H        0.0378477591    0.2951474874    2.3487891200
H        1.1949673871   -0.0104315785    4.5302788278
H        2.5985059513   -1.1129160120    4.6685126380
H        0.2080398508   -1.1415856343    6.6811613567
H        0.5341643938   -3.6919240414    7.3560964763
