21   
torsion grid (-165,)
C        0.6124604196    0.7264026044    2.7182957106
C        0.4286542610   -0.0994302280    1.4412334077
C        0.0563211312    0.7437304527    0.2033914851
H        0.8778481738    1.4546700799    0.0459281301
C       -0.0316640721   -0.1385486427   -1.0574848312
C       -1.2071200471    1.5665283178    0.4015825981
C       -2.4722600451    0.8326096308    0.7811862658
C       -1.1963511699    2.8980397467    0.2465359192
H        0.9138411716    0.0914412196    3.5583939660
H       -0.3096214320    1.2448516132    2.9998318859
H        1.3854477561    1.4914479393    2.5811605418
H        1.3594799208   -0.6347797948    1.2168448527
H       -0.3318257191   -0.8742774650    1.6038960826
H       -0.0309862959    0.4746642008   -1.9641081550
H        0.8351511139   -0.8073127288   -1.1141585533
H       -0.9288397012   -0.7655246541   -1.0615345754
H       -2.3669513788    0.3387943961    1.7545169119
H       -2.7197644502    0.0493310819    0.0558830334
H       -3.3227277695    1.5168371302    0.8420166925
H       -2.0960960478    3.4968898270    0.3724117202
H       -0.2849946145    3.4326124258   -0.0136593072
21   
torsion grid (-150,)
C        0.5966581565    0.6997298263    2.8234469250
C        0.4442258015   -0.1013302611    1.5265726168
C        0.0831538052    0.7650198649    0.3014625354
H        0.8995433284    1.4890010190    0.1841887044
C        0.0329352258   -0.0830066261   -0.9905055511
C       -1.1934378922    1.5686594600    0.4910480730
C       -2.4460838858    0.8146565224    0.8732594745
C       -1.2060072729    2.8986996330    0.3238472788
H        0.8886641787    0.0506172260    3.6559898841
H       -0.3347648154    1.2044719942    3.0991497437
H        1.3649596474    1.4741536214    2.7156893161
H        1.3861942429   -0.6181389162    1.3063183565
H       -0.3082008058   -0.8897089245    1.6596422761
H        0.3053538936    0.5190476408   -1.8625726785
H        0.7531725518   -0.9078791814   -0.9365563905
H       -0.9531383636   -0.5228081371   -1.1654782869
H       -2.3463261180    0.3605885590    1.8663182877
H       -2.6577827714   -0.0027916311    0.1747402510
H       -3.3159235082    1.4765751787    0.8925729000
H       -2.1170343237    3.4824245669    0.4389800979
H       -0.3026863186    3.4470409828    0.0643147034
21   
torsion grid (-135,)
C        0.6049487069    0.6946042211    2.8717140436
C        0.4629912760   -0.0972845761    1.5682522735
C        0.1042163120    0.7761500505    0.3473043341
H        0.9106164482    1.5128426961    0.2477128552
C        0.0700235278   -0.0642092370   -0.9574616194
C       -1.1839888784    1.5607222866    0.5369144656
C       -2.4261036044    0.7824110694    0.9042712887
C       -1.2158165468    2.8918382272    0.3817169751
H        0.8927637979    0.0401732528    3.7015451785
H       -0.3294646536    1.1953842405    3.1445871208
H        1.3722566795    1.4714656207    2.7747765166
H        1.4084348881   -0.6083916692    1.3489886997
H       -0.2868334479   -0.8897548302    1.6903027148
H        0.5882906559    0.4536536585   -1.7697600210
H        0.5761359302   -1.0265067738   -0.8194569995
H       -0.9491704277   -0.2779510296   -1.2909079925
H       -2.3359713347    0.3469172851    1.9065854287
H       -2.6008966169   -0.0520072945    0.2153964956
H       -3.3126940392    1.4219701179    0.8947494465
H       -2.1366632797    3.4603020934    0.4952026928
H       -0.3191091176    3.4562552316    0.1341617600
21   
torsion grid (-120,)
C        0.6412479673    0.6910091355    2.8096344444
C        0.4684288246   -0.0982566349    1.5085360209
C        0.0964235037    0.7779093227    0.2933018075
H        0.8957256750    1.5195986603    0.1810767977
C        0.0359192174   -0.0706365898   -1.0096120619
C       -1.1929895880    1.5536175419    0.5097854624
C       -2.4290002734    0.7589887962    0.8617696661
C       -1.2313623058    2.8879614237    0.3881620027
H        0.9348081073    0.0327694425    3.6344437484
H       -0.2831871078    1.2021460303    3.0970380285
H        1.4157789817    1.4590959629    2.7009131549
H        1.4035514552   -0.6218141275    1.2730596533
H       -0.2890930634   -0.8810113374    1.6418570841
H        0.7539329989    0.2957179522   -1.7491665614
H        0.2682610541   -1.1236962461   -0.8176279712
H       -0.9514177021   -0.0337382557   -1.4786705215
H       -2.3370358595    0.3077459692    1.8569637438
H       -2.5925675065   -0.0654623757    0.1579523660
H       -3.3217203469    1.3900781088    0.8608968605
H       -2.1540571725    3.4492142551    0.5210511639
H       -0.3384612646    3.4624096394    0.1501984567
21   
torsion grid (-105,)
C        0.7377731386    0.7666414715    2.7250549975
C        0.5187464427   -0.0656374854    1.4582640007
C        0.1088681062    0.7682135485    0.2253182975
H        0.8941972592    1.5140813321    0.0574165374
C        0.0091557194   -0.1321568440   -1.0378053379
C       -1.1833610103    1.5340203118    0.4603983651
C       -2.4087086111    0.7269348221    0.8204113328
C       -1.2334514831    2.8685119239    0.3457897265
H        1.0531882067    0.1350044468    3.5625293205
H       -0.1748362223    1.2931281266    3.0223424854
H        1.5129765815    1.5252602101    2.5662281859
H        1.4420263041   -0.6054437734    1.2111552431
H       -0.2390769587   -0.8370408122    1.6429653017
H        0.8670543274    0.0261279740   -1.6984591962
H       -0.0362507381   -1.1957270825   -0.7818953440
H       -0.8805459191    0.1043610504   -1.6297433536
H       -2.3018070771    0.2671579600    1.8102322703
H       -2.5726172349   -0.0915269050    0.1096035453
H       -3.3064479385    1.3507022435    0.8358243734
H       -2.1586479360    3.4218323694    0.4938347681
H       -0.3482421057    3.4511469943    0.0991060120
21   
torsion grid (-90,)
C        0.7408376030    0.7954004649    2.7762000419
C        0.5297042975   -0.0458593313    1.5139590049
C        0.1118140983    0.7760938832    0.2755941411
H        0.8849791837    1.5330418323    0.0988019077
C        0.0279259170   -0.1345264595   -0.9745004176
C       -1.1941524954    1.5207253467    0.5036917805
C       -2.4193958721    0.6916786194    0.8093967293
C       -1.2557305527    2.8575601540    0.4287338477
H        1.0644603583    0.1716141389    3.6164394549
H       -0.1779662424    1.3121860314    3.0712317867
H        1.5070173026    1.5622169009    2.6129897487
H        1.4571578163   -0.5805339711    1.2705651422
H       -0.2219279113   -0.8218878478    1.7035756972
H        0.9920187716   -0.1706205990   -1.4920984073
H       -0.2703652422   -1.1566002547   -0.7194918146
H       -0.6954221952    0.2555596329   -1.6983793073
H       -2.3186754922    0.1748936533    1.7713252765
H       -2.5766859608   -0.0833089375    0.0500751715
H       -3.3184948760    1.3120266535    0.8545224861
H       -2.1893098242    3.3970169036    0.5753598672
H       -0.3720526670    3.4562392299    0.2174240012
21   
torsion grid (-75,)
C        0.8115471757    0.8674641710    2.7546632717
C        0.5981858985   -0.0122050818    1.5190965071
C        0.1459096096    0.7673069697    0.2654540331
H        0.9096468469    1.5245120312    0.0492189962
C        0.0556510930   -0.1777870248   -0.9511874845
C       -1.1626268248    1.5081808871    0.4911660519
C       -2.3836689907    0.6817552652    0.8199223673
C       -1.2295360487    2.8435938481    0.3966620558
H        1.1652029089    0.2740378480    3.6047357855
H       -0.1139964156    1.3699394775    3.0530909787
H        1.5559242545    1.6475632227    2.5571239813
H        1.5323984448   -0.5347622200    1.2758095944
H       -0.1344158206   -0.7975272223    1.7428098936
H        1.0570245992   -0.4219243445   -1.3219141190
H       -0.4554948843   -1.1139466329   -0.7030115634
H       -0.4869200080    0.2956278956   -1.7765080044
H       -2.2554573135    0.1406979537    1.7650387279
H       -2.5751584289   -0.0724545730    0.0478204219
H       -3.2746435490    1.3088590460    0.9099736558
H       -2.1631812352    3.3822710903    0.5456676811
H       -0.3504042824    3.4419132029    0.1662053429
21   
torsion grid (-60,)
C        0.8552077863    0.8826483613    2.7362753478
C        0.6648070080   -0.0030774817    1.5010994320
C        0.1827372274    0.7635914154    0.2509161100
H        0.9392694572    1.5256746161    0.0236784225
C        0.0969383711   -0.1815312899   -0.9624005549
C       -1.1286073916    1.4973961775    0.4833447099
C       -2.3344578690    0.6744551718    0.8723991458
C       -1.2103743218    2.8283738739    0.3461996257
H        1.2354477197    0.3012902557    3.5831924430
H       -0.0848620343    1.3524728108    3.0424358677
H        1.5701546755    1.6885978266    2.5340369244
H        1.6150770011   -0.4924113907    1.2525968598
H       -0.0392895850   -0.8134534054    1.7287527471
H        1.0793878380   -0.6155369479   -1.1791370877
H       -0.5944301068   -1.0112209071   -0.7792508960
H       -0.2443982430    0.3527389678   -1.8549679989
H       -2.1681060171    0.1476924612    1.8195893794
H       -2.5580289979   -0.0909803341    0.1204953385
H       -3.2213594323    1.3030251003    0.9884305900
H       -2.1449234634    3.3639236635    0.5005923344
H       -0.3429186510    3.4260770215    0.0736989241
21   
torsion grid (-45,)
C        0.8513117958    0.8707796065    2.8089527774
C        0.6603409873    0.0203641034    1.5491276323
C        0.1708628222    0.8232870878    0.3254507942
H        0.9337802654    1.5861689149    0.1222309693
C        0.0795639940   -0.0775379164   -0.9220485239
C       -1.1339141677    1.5616616238    0.5798678445
C       -2.3260406953    0.7503466355    1.0317398743
C       -1.2216129184    2.8884421527    0.4091496461
H        1.2348431023    0.2665148402    3.6381343637
H       -0.0882793200    1.3304509325    3.1317203846
H        1.5641766506    1.6834627244    2.6275039684
H        1.6130259567   -0.4535041941    1.2822729379
H       -0.0371497901   -0.8017601508    1.7557633592
H        0.9727107466   -0.7060873294   -1.0112267898
H       -0.7767701617   -0.7582135563   -0.8627677017
H       -0.0292786222    0.5175430172   -1.8336840945
H       -2.1366690123    0.2729448271    2.0004838751
H       -2.5605890472   -0.0536700315    0.3250602777
H       -3.2147848379    1.3785376217    1.1348205962
H       -2.1522553555    3.4273890997    0.5747075946
H       -0.3629393454    3.4790280207    0.0962155151
21   
torsion grid (-30,)
C        0.8406831810    0.8427055823    2.9490109685
C        0.6881391077    0.0271606514    1.6611947631
C        0.2141999360    0.8606701460    0.4521030626
H        0.9711465000    1.6408471150    0.3001475318
C        0.1689458836    0.0048740740   -0.8347009561
C       -1.1073118294    1.5724384066    0.6944484249
C       -2.2844141448    0.7352330312    1.1386927682
C       -1.2226435405    2.8964557561    0.5187911730
H        1.2114335846    0.2188486203    3.7694287215
H       -0.1103983267    1.2841701294    3.2634821214
H        1.5491235006    1.6670623445    2.8070922711
H        1.6534736973   -0.4235840577    1.4006809175
H       -0.0008784828   -0.8111542657    1.8283687560
H        0.9233062557   -0.7892242802   -0.8070508058
H       -0.7976151301   -0.4976416023   -0.9476693876
H        0.3240575215    0.6184158901   -1.7265239632
H       -2.1082827551    0.3005696814    2.1298157456
H       -2.4680575793   -0.1029257267    0.4570337474
H       -3.1976560536    1.3337820074    1.1920956374
H       -2.1671053361    3.4148690363    0.6710845808
H       -0.3734148820    3.5051423374    0.2149205189
21   
torsion grid (-15,)
C        0.8521713753    0.8274892618    3.0208422885
C        0.7136377876    0.0256077523    1.7231087490
C        0.2439785093    0.8694799311    0.5192182231
H        0.9909964344    1.6620715305    0.3891098225
C        0.2182269122    0.0267589971   -0.7840117630
C       -1.0885609263    1.5600725917    0.7609708281
C       -2.2550672598    0.6967960760    1.1824241593
C       -1.2225951849    2.8845372637    0.6034337118
H        1.2178955552    0.1960429120    3.8377029126
H       -0.1031642382    1.2624026917    3.3315953611
H        1.5589983611    1.6557323165    2.8941218816
H        1.6832366964   -0.4172922550    1.4645640281
H        0.0276140052   -0.8179463489    1.8747894789
H        0.7766241757   -0.9085277641   -0.6682927634
H       -0.8019044822   -0.2554160091   -1.0628224879
H        0.6374654752    0.5840056968   -1.6262003956
H       -2.0922586086    0.2751121503    2.1814566800
H       -2.3979205938   -0.1521997926    0.5040992438
H       -3.1849840139    1.2710473582    1.2080375257
H       -2.1764624731    3.3860563006    0.7537582528
H       -0.3798773382    3.5104471557    0.3170684027
21   
torsion grid (0,)
C        0.8622442560    0.8185225467    2.8243731413
C        0.6146848221   -0.1286338935    1.6465550307
C        0.4095490010    0.5944245627    0.2981927931
H        1.3112311076    1.1913503607    0.1186222599
C        0.2642043398   -0.4267823047   -0.8668030691
C       -0.7588895195    1.5663429660    0.3326219699
C       -2.1073282251    1.0148631890    0.7334664093
C       -0.5987701389    2.8589198516    0.0158379055
H        1.0334325111    0.2597683410    3.7507968925
H        0.0136111074    1.4908236789    2.9864482573
H        1.7426281011    1.4459849232    2.6430187352
H        1.4702893132   -0.8070723144    1.5384931111
H       -0.2520941206   -0.7686165248    1.8550142155
H        0.3347590775   -1.4600477466   -0.5102920129
H       -0.6932136587   -0.3246945747   -1.3856543046
H        1.0487970652   -0.2814740703   -1.6151196415
H       -2.1115153469    0.7119884017    1.7873886018
H       -2.3683524054    0.1239051347    0.1504849720
H       -2.8981969087    1.7568017847    0.5946195908
H       -1.4333202380    3.5571656608    0.0182037498
H        0.3749632989    3.2601902839   -0.2575026782
21   
torsion grid (15,)
C        0.9325077068    0.8964027500    2.8236055606
C        0.6588466118   -0.0720581537    1.6692253270
C        0.4255259457    0.6242152919    0.3113249101
H        1.3124147893    1.2309043771    0.0956351956
C        0.2607662081   -0.4259802866   -0.8226495894
C       -0.7590930849    1.5763152954    0.3565509887
C       -2.0991876891    0.9931970441    0.7394321733
C       -0.6204264873    2.8763811776    0.0613827387
H        1.1186843392    0.3547474036    3.7572809846
H        0.0887742523    1.5744252962    2.9873412765
H        1.8116689140    1.5168836252    2.6144690820
H        1.5090730895   -0.7574016500    1.5577538052
H       -0.2061280267   -0.7035889044    1.9065442486
H        0.0773572055   -1.4288937967   -0.4221916842
H       -0.5515756450   -0.1716640091   -1.5089787794
H        1.1772371206   -0.4922431395   -1.4180858140
H       -2.1037771377    0.6684777782    1.7868643091
H       -2.3391756908    0.1101719008    0.1355479943
H       -2.9028319212    1.7232896709    0.6114207435
H       -1.4670744046    3.5598500067    0.0728045739
H        0.3469287243    3.2990511672   -0.2022311986
21   
torsion grid (30,)
C        1.0110666364    0.9462224078    2.7811811968
C        0.7106384823   -0.0496812843    1.6571464854
C        0.4409977659    0.6130550372    0.2892728105
H        1.3158992215    1.2218382705    0.0324003269
C        0.2592565644   -0.4660950807   -0.8064809107
C       -0.7534241536    1.5528632794    0.3398009314
C       -2.0891026907    0.9546886513    0.7141839462
C       -0.6265655436    2.8564616212    0.0550046071
H        1.2238948836    0.4268656900    3.7218155111
H        0.1686192502    1.6242993812    2.9508626448
H        1.8819085655    1.5648221863    2.5349823317
H        1.5582776949   -0.7377935582    1.5413211118
H       -0.1474241157   -0.6752991183    1.9316159004
H       -0.1627045003   -1.3899857491   -0.3958765928
H       -0.3736529982   -0.1182498125   -1.6278967104
H        1.2321334784   -0.7376411715   -1.2311801361
H       -2.0849452959    0.5913044661    1.7488250853
H       -2.3333711486    0.0950415937    0.0791746440
H       -2.8942242474    1.6882485942    0.6197070057
H       -1.4791863164    3.5323302868    0.0731624359
H        0.3366228649    3.2899383048   -0.2063941490
21   
torsion grid (45,)
C        0.9027187830    0.9136122912    2.8803366179
C        0.6513964362   -0.0473175009    1.7143978190
C        0.3955237016    0.6585538590    0.3655247921
H        1.2692193176    1.2842466626    0.1448568600
C        0.2566878981   -0.3815184553   -0.7657981104
C       -0.8102193245    1.5835241126    0.4202500165
C       -2.1526138269    0.9612222309    0.7247461578
C       -0.6858953478    2.8999683696    0.2005093056
H        1.1122930736    0.3650559276    3.8049980410
H        0.0386765207    1.5615874547    3.0584552263
H        1.7604135569    1.5644835622    2.6745047956
H        1.5181787570   -0.7098118295    1.5926541628
H       -0.1962541486   -0.7032473920    1.9483098164
H       -0.3864904149   -1.2165274888   -0.4666967939
H       -0.1478998181    0.0652095271   -1.6792165351
H        1.2364653395   -0.8102052019   -1.0050982192
H       -2.1630786633    0.5054771579    1.7220572011
H       -2.3945812466    0.1649929620    0.0112476459
H       -2.9525835312    1.7054248499    0.6870707032
H       -1.5440753377    3.5685082337    0.2260999760
H        0.2806470236    3.3518420096   -0.0129924182
21   
torsion grid (60,)
C        0.9487465764    0.9220734814    2.8661733386
C        0.7207765141   -0.0494782592    1.7040393881
C        0.4329960167    0.6456280909    0.3560494950
H        1.3013221376    1.2749212251    0.1219782935
C        0.2977879290   -0.3957215296   -0.7708834197
C       -0.7763144933    1.5653732752    0.4172454107
C       -2.1073739912    0.9521222267    0.7845420448
C       -0.6636243239    2.8747940274    0.1531962630
H        1.1890129697    0.3830956874    3.7889949550
H        0.0638017858    1.5382996038    3.0541713184
H        1.7791371290    1.6040683906    2.6495207770
H        1.6091178518   -0.6809290080    1.5763569211
H       -0.1016069810   -0.7343526355    1.9468607090
H       -0.5192135744   -1.0985723883   -0.5749405145
H        0.1029759981    0.0886977396   -1.7332013073
H        1.2193895301   -0.9809931052   -0.8637122633
H       -2.0773846120    0.5060920327    1.7857772083
H       -2.3860700869    0.1511162200    0.0903242830
H       -2.9040144940    1.7007210013    0.7735981493
H       -1.5229094141    3.5416383533    0.1844909280
H        0.2942107653    3.3223801304   -0.1041042374
21   
torsion grid (75,)
C        0.8086447132    0.8464615404    2.9063415740
C        0.6237149163   -0.0732535292    1.6952349949
C        0.3566284384    0.6817324524    0.3760504605
H        1.2265932740    1.3276946731    0.1997337411
C        0.2661348445   -0.2975418871   -0.8111182581
C       -0.8606270690    1.5905800748    0.4455070570
C       -2.1822988517    0.9694349212    0.8339752988
C       -0.7619914009    2.8992926525    0.1723087843
H        1.0333547392    0.2688958473    3.8094989955
H       -0.0884321992    1.4429423199    3.1007553213
H        1.6348340814    1.5478683070    2.7418656824
H        1.5264578896   -0.6814279385    1.5589690390
H       -0.1910959758   -0.7835723374    1.8867048451
H       -0.6817961324   -0.8456021846   -0.8157413270
H        0.3263804328    0.2443852209   -1.7606883018
H        1.0822108237   -1.0275198025   -0.7814035520
H       -2.1458477154    0.5650025479    1.8524981699
H       -2.4488480514    0.1362792691    0.1739859254
H       -2.9909094277    1.7040320442    0.7931127480
H       -1.6271888139    3.5583602205    0.2049036851
H        0.1898817975    3.3539782108   -0.0945679281
21   
torsion grid (90,)
C        0.7720225547    0.8214700727    3.0170639284
C        0.6335409826   -0.0745729441    1.7822188667
C        0.3858990721    0.7063740427    0.4743356658
H        1.2474334697    1.3740732780    0.3462839781
C        0.3519370837   -0.2406828547   -0.7474980641
C       -0.8510777882    1.5884768710    0.5273248763
C       -2.1606457418    0.9380658089    0.9093437623
C       -0.7809672949    2.8967323701    0.2432577133
H        0.9812502607    0.2282470101    3.9137549716
H       -0.1383111549    1.4011920176    3.2003891435
H        1.5918640271    1.5378299892    2.8893022615
H        1.5516720481   -0.6608599346    1.6545294679
H       -0.1712774350   -0.8049203897    1.9376662849
H       -0.6575974767   -0.6100687308   -0.9529752202
H        0.6711431082    0.2924097353   -1.6490484124
H        1.0151502095   -1.1009164534   -0.6090908154
H       -2.1352521821    0.5778807310    1.9446652903
H       -2.3818225317    0.0682582021    0.2805224187
H       -2.9927726029    1.6412880870    0.8189068189
H       -1.6621183073    3.5349128663    0.2591595341
H        0.1630435688    3.3717407888   -0.0160286288
21   
torsion grid (105,)
C        0.7979864918    0.8050169598    2.9943977672
C        0.6580352720   -0.0911313288    1.7600375468
C        0.3998623233    0.6886103072    0.4532439166
H        1.2515816946    1.3679761294    0.3268790347
C        0.3681805535   -0.2614969792   -0.7738535926
C       -0.8469434086    1.5558713232    0.5152508162
C       -2.1453064904    0.8838460504    0.8976768783
C       -0.7953156764    2.8664257705    0.2381194782
H        1.0122832449    0.2123105122    3.8902299027
H       -0.1136188761    1.3817686290    3.1808264122
H        1.6150469763    1.5240916782    2.8639380168
H        1.5783596023   -0.6730550542    1.6274423811
H       -0.1426371362   -0.8253153872    1.9181581163
H       -0.6494571094   -0.4295151314   -1.1385278463
H        0.9219416408    0.1755233768   -1.6106925249
H        0.8159631730   -1.2347801414   -0.5478753828
H       -2.1191506911    0.5402346071    1.9386533251
H       -2.3413734695   -0.0009089566    0.2811848599
H       -2.9922617882    1.5668187688    0.7909585534
H       -1.6851373144    3.4923223624    0.2593688555
H        0.1415646836    3.3555754990   -0.0205813281
21   
torsion grid (120,)
C        0.8666298920    0.9035600278    2.6182734230
C        0.5992983338   -0.0589115797    1.4572968590
C        0.2561405618    0.6480676682    0.1286685670
H        1.1036903205    1.3008490654   -0.1103706024
C        0.0963258895   -0.3814090873   -1.0270816369
C       -0.9665347662    1.5438430504    0.2459614639
C       -2.2458124131    0.9092344745    0.7396916075
C       -0.9116200638    2.8427488113   -0.0805059690
H        1.1359008907    0.3580147946    3.5291182874
H       -0.0096674887    1.5210749405    2.8401338723
H        1.6910901395    1.5852147081    2.3789156464
H        1.4869474472   -0.6814339208    1.2883918469
H       -0.2084328407   -0.7526996942    1.7229887167
H       -0.9020770584   -0.3476418209   -1.4724069635
H        0.8095832032   -0.1799664601   -1.8317373967
H        0.2678141455   -1.4068418973   -0.6825472128
H       -2.1566891277    0.6093779776    1.7907028332
H       -2.4903305880    0.0020468716    0.1748550550
H       -3.0898234815    1.5993254839    0.6582176018
H       -1.7868137683    3.4864252323   -0.0193224084
H        0.0130502694    3.3041225774   -0.4211122609
21   
torsion grid (135,)
C        0.9047658685    0.9392343466    2.6076936913
C        0.6183923035   -0.0320353495    1.4587557373
C        0.2590675223    0.6628046682    0.1279034205
H        1.0931705740    1.3244985632   -0.1325751407
C        0.0880113163   -0.3827348398   -1.0096133152
C       -0.9748135169    1.5415577351    0.2595258604
C       -2.2504806756    0.8764875741    0.7210563930
C       -0.9328967163    2.8499423741   -0.0283009930
H        1.1810698406    0.4002386308    3.5203521142
H        0.0337160251    1.5629523952    2.8328003067
H        1.7302719016    1.6142206648    2.3535404034
H        1.4996504889   -0.6629871752    1.2850809482
H       -0.1903434770   -0.7177403193    1.7401983064
H       -0.8030998076   -0.1877883704   -1.6133938828
H        0.9543757815   -0.3879930457   -1.6772849136
H       -0.0205946852   -1.3955263467   -0.6052717251
H       -2.1677821629    0.5440086878    1.7627780805
H       -2.4772560543   -0.0146090627    0.1239396378
H       -3.1023634115    1.5583878498    0.6535423271
H       -1.8161781403    3.4812016213    0.0451863926
H       -0.0113743949    3.3320562680   -0.3480747344
21   
torsion grid (150,)
C        0.9755245018    0.9940547770    2.5604137305
C        0.6655533582   -0.0060920298    1.4427444697
C        0.2717294415    0.6535798802    0.1037187543
H        1.0911464406    1.3173034039   -0.1968115795
C        0.0862785809   -0.4220656460   -0.9952617653
C       -0.9709541041    1.5191383610    0.2416047904
C       -2.2417452090    0.8393452496    0.6946912761
C       -0.9405597448    2.8303132001   -0.0347973456
H        1.2771453545    0.4785159906    3.4786054466
H        0.1064053029    1.6182203561    2.7914615344
H        1.7908876474    1.6667376809    2.2700135083
H        1.5437801070   -0.6404324087    1.2648110821
H       -0.1346829037   -0.6855669380    1.7605168948
H       -0.6539077911   -0.1155791612   -1.7408182413
H        1.0311543881   -0.6352816105   -1.5041314955
H       -0.2740869845   -1.3637889793   -0.5648895943
H       -2.1485528313    0.4690909865    1.7226668973
H       -2.4765893063   -0.0285267937    0.0673465242
H       -3.0930750046    1.5244270507    0.6609630769
H       -1.8289642858    3.4534169454    0.0462455924
H       -0.0238779651    3.3231225613   -0.3522152236
21   
torsion grid (165,)
C        0.8756688435    0.9470183304    2.6710830309
C        0.6081780923   -0.0122352022    1.5073633885
C        0.2271574494    0.6941488612    0.1885587142
H        1.0465030173    1.3746818106   -0.0744379465
C        0.0790706715   -0.3375525491   -0.9495188368
C       -1.0257707808    1.5436836244    0.3329067993
C       -2.3069650562    0.8383284117    0.7113237523
C       -0.9940900154    2.8677824029    0.1267507218
H        1.1743628444    0.4002185338    3.5719903195
H       -0.0118169350    1.5404304758    2.9128059584
H        1.6793870048    1.6500762620    2.4233002322
H        1.5027780397   -0.6206148325    1.3213083606
H       -0.1832793750   -0.7203079576    1.7824213736
H       -0.4390340187    0.0919665747   -1.8130122394
H        1.0587992980   -0.7036991103   -1.2733300159
H       -0.5037584434   -1.2058712750   -0.6211969106
H       -2.2267560247    0.3703294085    1.6997257890
H       -2.5472532788    0.0380600901    0.0017749032
H       -3.1500391341    1.5338837653    0.7363712082
H       -1.8871629912    3.4829304187    0.2166632997
H       -0.0716406064    3.3797014658   -0.1396575154
21   
torsion grid (180,)
C        0.9471975566    0.9671335233    2.6438709022
C        0.6983143180   -0.0080238991    1.4890824939
C        0.2795387433    0.6780953737    0.1711081996
H        1.0912834813    1.3595733965   -0.1142007332
C        0.1294028926   -0.3620715446   -0.9550733631
C       -0.9749616788    1.5236405796    0.3238848278
C       -2.2404447489    0.8285661384    0.7689631359
C       -0.9571726370    2.8399442285    0.0708544610
H        1.2802460270    0.4367879817    3.5425594285
H        0.0425150905    1.5287849597    2.8974225018
H        1.7198911341    1.6983651523    2.3795771436
H        1.6114120378   -0.5849360686    1.2950630089
H       -0.0642346322   -0.7420012102    1.7790661463
H       -0.1676101060    0.1145367333   -1.8948968040
H        1.0781558406   -0.8840559357   -1.1222010430
H       -0.6220193763   -1.1195549988   -0.7070808656
H       -2.1178728477    0.3742212873    1.7593504342
H       -2.5172409484    0.0200226496    0.0827566638
H       -3.0785079166    1.5286023537    0.8214622939
H       -1.8501636669    3.4541341954    0.1676499868
H       -0.0464723646    3.3462220152   -0.2426575381
