18   
torsion grid (-165,)
C        0.1602159561    4.2878616398   -0.3045425598
C        0.5561239282    2.8289670844   -0.0417314695
C       -0.2836419394    1.8264345978   -0.8561389713
C        0.1365868296    0.3994137159   -0.6228216643
C       -0.5705630688   -0.5849840807   -0.0467807272
C       -1.9730407213   -0.5148006972    0.4966891902
H        0.9211365876    4.9831776141    0.0657061296
H        0.0572881043    4.4735319714   -1.3806786883
H       -0.7969950498    4.5386530320    0.1655223016
H        0.4638896860    2.5968958523    1.0258479055
H        1.6146427935    2.6858976971   -0.2948179796
H       -0.1668427071    2.0641956874   -1.9228315158
H       -1.3445050542    1.9684643554   -0.6251663460
H        1.1506229252    0.1607238494   -0.9487738089
H       -0.0875597087   -1.5584334854    0.0471183171
H       -2.6282975964   -1.2227423552   -0.0263578279
H       -1.9901086920   -0.7953924246    1.5572914807
H       -2.4147618502    0.4800996134    0.4067299530
18   
torsion grid (-150,)
C       -0.0031427085    4.2093016877   -0.2904559946
C        0.4135074539    2.7550433501   -0.0070481502
C       -0.4164593165    1.7271454010   -0.8003548900
C        0.0202195268    0.3099634861   -0.5396479175
C       -0.6793877065   -0.6750001513    0.0445992060
C       -2.0881434275   -0.6158458428    0.5728922956
H        0.8394846820    4.9004121077   -0.1848554023
H       -0.3579005051    4.3143342134   -1.3230746941
H       -0.8130844026    4.5410853790    0.3670579949
H        0.3380514797    2.5359535557    1.0640896507
H        1.4701578249    2.6177941343   -0.2696678905
H       -0.3019402527    1.9462481867   -1.8711658393
H       -1.4789708680    1.8615537182   -0.5721064701
H        1.0406190507    0.0799854657   -0.8518838017
H       -0.1842222770   -1.6401892412    0.1584082647
H       -2.7281231778   -1.3409877258    0.0545117087
H       -2.1121843179   -0.8801037710    1.6375495613
H       -2.5426690412    0.3712156738    0.4627231527
18   
torsion grid (-135,)
C       -0.0880125962    4.1729554965   -0.3067927361
C        0.3266891684    2.7192026393    0.0099941635
C       -0.4806160199    1.6743745494   -0.7855148903
C       -0.0394737462    0.2640826199   -0.4969311623
C       -0.7380647673   -0.7119042189    0.1034421495
C       -2.1490697595   -0.6469340800    0.6250051079
H        0.7802339487    4.8234759335   -0.4519423556
H       -0.6663446050    4.2199693661   -1.2370634936
H       -0.7112455424    4.6056806559    0.4817623401
H        0.2208600766    2.5130422660    1.0807138115
H        1.3900954096    2.5767468712   -0.2179076071
H       -0.3475933432    1.8793593400   -1.8570066792
H       -1.5477730639    1.8054283840   -0.5785871437
H        0.9831362623    0.0320058643   -0.8001288897
H       -0.2403212426   -1.6731174957    0.2378097755
H       -2.7850345182   -1.3835364323    0.1179586353
H       -2.1764499788   -0.8911977576    1.6943408667
H       -2.6058560921    0.3366410902    0.4947227145
18   
torsion grid (-120,)
C       -0.1237927673    4.1587421844   -0.3168607240
C        0.2780723619    2.7057382993    0.0309974392
C       -0.4908834698    1.6528284878   -0.7919204811
C       -0.0461417487    0.2468194093   -0.4883136588
C       -0.7450738331   -0.7244696076    0.1192933502
C       -2.1586452111   -0.6565323177    0.6335355119
H        0.7266181641    4.7425189051   -0.6828941599
H       -0.8907544675    4.1837488189   -1.0989615458
H       -0.5318129932    4.6877915931    0.5500196458
H        0.1069678657    2.5047796467    1.0942060044
H        1.3529641678    2.5616721626   -0.1296790650
H       -0.3270513872    1.8576360311   -1.8593299732
H       -1.5646572523    1.7751142234   -0.6176963097
H        0.9787425041    0.0147641989   -0.7834088780
H       -0.2459056618   -1.6830570121    0.2664444136
H       -2.7918065723   -1.3977205336    0.1296445425
H       -2.1907834241   -0.8919717747    1.7046925025
H       -2.6154326149    0.3257106923    0.4933365754
18   
torsion grid (-105,)
C       -0.3406136347    4.0292000155   -0.2702878602
C        0.0817208311    2.5944012802    0.1158673859
C       -0.6617429100    1.5102002245   -0.6895635793
C       -0.1811844867    0.1203835255   -0.3664220873
C       -0.8486389376   -0.8525232895    0.2731602619
C       -2.2541970275   -0.8030896016    0.8109901999
H        0.4211293749    4.5287576059   -0.8776306356
H       -1.2801798998    4.0366898976   -0.8331297311
H       -0.4893415145    4.6543291312    0.6164649066
H       -0.1136944185    2.4151235128    1.1792124450
H        1.1628162466    2.4683642447   -0.0147609413
H       -0.5093510452    1.7011336654   -1.7614807154
H       -1.7368757532    1.6094996693   -0.5105824499
H        0.8432899783   -0.0958433308   -0.6744547630
H       -0.3267690673   -1.7971849920    0.4311456161
H       -2.8795252925   -1.5697809367    0.3363569448
H       -2.2623547199   -1.0131991350    1.8878610347
H       -2.7350177307    0.1653768371    0.6559491242
18   
torsion grid (-90,)
C       -0.5507254607    3.9748053992   -0.0454966569
C       -0.0967813974    2.5503749267    0.3206791227
C       -0.8148673570    1.4619630896   -0.5012784334
C       -0.3006179552    0.0788617255   -0.2014181422
C       -0.9411559019   -0.9168993472    0.4304468305
C       -2.3430460074   -0.9056726146    0.9799317507
H        0.0615391307    4.3996075379   -0.8483839609
H       -1.5997216820    3.9975507268   -0.3601358827
H       -0.4498317214    4.6520967000    0.8097887467
H       -0.2959362801    2.3547002656    1.3810318651
H        0.9884460721    2.4562247036    0.1947793877
H       -0.6699538422    1.6728626671   -1.5706134609
H       -1.8915696660    1.5325709466   -0.3185986418
H        0.7257595823   -0.1104373413   -0.5205265931
H       -0.3972969163   -1.8517549545    0.5716389331
H       -2.9564839398   -1.6768681792    0.4971151936
H       -2.3381523517   -1.1341086051    2.0530672555
H       -2.8447535824    0.0552290458    0.8453255676
18   
torsion grid (-75,)
C       -0.7190080926    3.9128236927   -0.0235981590
C       -0.2230904742    2.5108111884    0.3542716937
C       -0.9122855190    1.3957116024   -0.4556557357
C       -0.3636700906    0.0294486637   -0.1396520961
C       -0.9843486263   -0.9811900880    0.4883586499
C       -2.3936973811   -1.0080751050    1.0178135296
H       -0.3076015397    4.2349586809   -0.9870212686
H       -1.8123654897    3.9476133256   -0.0883494792
H       -0.4065840523    4.6547316875    0.7197859373
H       -0.4068125939    2.3244795652    1.4194173096
H        0.8636949294    2.4504310698    0.2168425301
H       -0.7697788046    1.5987783339   -1.5268107970
H       -1.9911131703    1.4401058467   -0.2766480250
H        0.6720449107   -0.1322310593   -0.4435000196
H       -0.4156730042   -1.8990950567    0.6424352096
H       -2.9755806099   -1.8032042712    0.5348174750
H       -2.3973472107   -1.2249043854    2.0933901141
H       -2.9232195831   -0.0649393318    0.8654123579
18   
torsion grid (-60,)
C       -0.7602218800    3.8370192911   -0.0124528918
C       -0.2572786769    2.4428240039    0.3772111600
C       -0.9466055648    1.3175711170   -0.4174771401
C       -0.4029304549   -0.0449236839   -0.0775691996
C       -1.0398290820   -1.0585883081    0.5289063196
C       -2.4672293265   -1.0951671881    1.0069119277
H       -0.5795318562    4.0399981829   -1.0745625221
H       -1.8382382268    3.9318157671    0.1631614110
H       -0.2582978747    4.6192688635    0.5672081679
H       -0.4205071993    2.2716465776    1.4481796899
H        0.8273961930    2.3842958728    0.2196177526
H       -0.7963067629    1.5049409460   -1.4902994358
H       -2.0268547582    1.3657840901   -0.2467875064
H        0.6438780441   -0.2012305213   -0.3442467147
H       -0.4710196374   -1.9725459342    0.7044915434
H       -3.0257490202   -1.8935845793    0.5022267888
H       -2.5086354039   -1.3133646324    2.0814166174
H       -2.9972780898   -0.1555700594    0.8358408189
18   
torsion grid (-45,)
C       -1.0243475901    3.6448903205    0.0430230988
C       -0.4779726682    2.2691165260    0.4465379232
C       -1.1558054525    1.1127918710   -0.3128699081
C       -0.5897850539   -0.2317480293    0.0603025439
C       -1.2102121710   -1.2420762209    0.6889680906
C       -2.6378512670   -1.2923635442    1.1649358076
H       -1.1165399071    3.7290987571   -1.0461856740
H       -2.0273902082    3.8041412303    0.4564870692
H       -0.3851197986    4.4584904858    0.4007454684
H       -0.5984931507    2.1155705453    1.5253541848
H        0.6016904327    2.2301548042    0.2514941582
H       -1.0114539712    1.2753668528   -1.3902513520
H       -2.2364582277    1.1480635035   -0.1398954809
H        0.4601801051   -0.3759592350   -0.2009122378
H       -0.6259742899   -2.1416537497    0.8867974234
H       -3.1812288467   -2.1117859641    0.6776891171
H       -2.6779298949   -1.4865526205    2.2440927394
H       -3.1836851978   -0.3663124482    0.9711993546
18   
torsion grid (-30,)
C       -0.8587679382    3.7801865997   -0.0089924588
C       -0.3351922556    2.3926340195    0.4027015175
C       -0.9859878183    1.2461788680   -0.3953149677
C       -0.4475361017   -0.1049096328   -0.0056285529
C       -1.1019484899   -1.1120555840    0.5929953421
C       -2.5481512725   -1.1510040220    1.0103292830
H       -1.1568722402    3.7942120744   -1.0636791597
H       -1.7548183883    4.0467430794    0.5634888495
H       -0.1174747957    4.5681624968    0.1551425956
H       -0.4924366793    2.2268079685    1.4743860116
H        0.7500273243    2.3452295757    0.2455792851
H       -0.7892251496    1.4160610512   -1.4630174796
H       -2.0734767600    1.2880334511   -0.2735961788
H        0.6109629656   -0.2574139541   -0.2242883802
H       -0.5343839909   -2.0177394986    0.8105402753
H       -3.0788611272   -1.9630394962    0.4974156538
H       -2.6338107834   -1.3497312865    2.0859941256
H       -3.0769904002   -0.2189079196    0.7992173673
18   
torsion grid (-15,)
C       -0.9167695938    3.7525657848   -0.0279020405
C       -0.4000672064    2.3657223903    0.4143724230
C       -1.0242955700    1.2064001683   -0.3873300490
C       -0.4834421039   -0.1365736182    0.0259911737
C       -1.1394696569   -1.1379694915    0.6325167331
C       -2.5895461175   -1.1768741488    1.0362014106
H       -1.4279589830    3.6967699819   -0.9955710488
H       -1.6493761046    4.1501259508    0.6827210399
H       -0.1115841595    4.4886132823   -0.1115532243
H       -0.5905861943    2.2062725455    1.4812400887
H        0.6891578024    2.3170345590    0.2944259518
H       -0.8072648216    1.3679657060   -1.4524261697
H       -2.1141416540    1.2415859769   -0.2877874897
H        0.5778887223   -0.2873212300   -0.1796724804
H       -0.5704681800   -2.0381337517    0.8684468315
H       -3.1124930320   -1.9971784534    0.5284765495
H       -2.6849460578   -1.3623628723    2.1133982824
H       -3.1194641647   -0.2493289393    0.8083501906
18   
torsion grid (0,)
C       -1.0429702830    3.6855423672   -0.0549615010
C       -0.5248709279    2.3092587942    0.4253867702
C       -1.1082753261    1.1300036051   -0.3785425840
C       -0.5482403064   -0.1978251469    0.0577167713
C       -1.1875653923   -1.1893744806    0.6973870658
C       -2.6318626283   -1.2288401731    1.1212639955
H       -1.7417284193    3.5783229478   -0.8920658915
H       -1.5724827149    4.2216365332    0.7388327103
H       -0.2294017101    4.3329346246   -0.3970178108
H       -0.7647292636    2.1571407818    1.4834244497
H        0.5689232451    2.2729063820    0.3603965091
H       -0.8766072825    1.2846178355   -1.4417255967
H       -2.1998429089    1.1455122133   -0.2972849896
H        0.5117644332   -0.3438493592   -0.1574376036
H       -0.6082166615   -2.0788778870    0.9480613155
H       -3.1548996641   -2.0666747874    0.6431375200
H       -2.7113952532   -1.3855961722    2.2042988691
H       -3.1721571476   -0.3117769795    0.8758714754
18   
torsion grid (15,)
C       -0.5268946812    3.9789290262    0.1916518760
C       -0.0169374084    2.5218362926    0.2414664514
C       -1.0603883298    1.5019190449   -0.2557889391
C       -0.5236551422    0.0956070775   -0.2858985386
C       -0.8954703611   -0.9438255548    0.4772627384
C       -1.9576626019   -0.9683286731    1.5442413773
H       -1.6148349610    4.0157564588    0.0657951946
H       -0.2703419514    4.5385926463    1.0960275314
H       -0.1026423847    4.5220456870   -0.6598111725
H        0.2545096643    2.2501363697    1.2679997094
H        0.9022972913    2.4203618034   -0.3471397012
H       -1.3749190382    1.7861570669   -1.2703220367
H       -1.9535032115    1.5722544208    0.3727515030
H        0.2798823930   -0.0747013242   -1.0046347131
H       -0.3776898304   -1.8907932027    0.3195920691
H       -2.7419838381   -1.6943437947    1.2954657302
H       -1.5315597506   -1.2828164492    2.5051629215
H       -2.4346259834    0.0031594173    1.6920418927
18   
torsion grid (30,)
C       -0.5686638784    3.9250592235    0.4515448171
C       -0.0686831475    2.4697577653    0.4787147219
C       -1.1004412796    1.4724714223   -0.0837272029
C       -0.5689410774    0.0647412806   -0.1435725570
C       -0.9289323169   -0.9814020645    0.6160608738
C       -1.9689493323   -1.0119038035    1.7045053222
H       -1.6588926637    3.9714020228    0.5550375695
H       -0.1167507698    4.5318705185    1.2420079627
H       -0.3342639790    4.4033611817   -0.5066316180
H        0.1589582359    2.1700949034    1.5087767192
H        0.8735716913    2.3827065447   -0.0753862787
H       -1.3846695558    1.7903149970   -1.0971353463
H       -2.0110241886    1.5266715313    0.5209091846
H        0.2202061144   -0.0998203412   -0.8791962671
H       -0.4176454911   -1.9284360892    0.4389332089
H       -2.7557408367   -1.7402074924    1.4708415692
H       -1.5218359780   -1.3265142480    2.6558358886
H       -2.4455415121   -0.0421121012    1.8643316788
18   
torsion grid (45,)
C       -0.4842517424    4.0186944634    0.0566021465
C        0.0267327449    2.5756169271    0.1586784383
C       -0.9807099513    1.5477167796   -0.3907911094
C       -0.4403494056    0.1423718281   -0.3706645366
C       -0.8590146379   -0.8899066449    0.3777369032
C       -1.9884349272   -0.9064625146    1.3734519208
H       -1.5270143390    4.0925705592    0.3870005966
H        0.1185052852    4.7075145354    0.6572078986
H       -0.4577234136    4.3710400112   -0.9814512792
H        0.2350465223    2.3258314103    1.2062651385
H        0.9815759653    2.4791088790   -0.3730769368
H       -1.2316625939    1.8189611830   -1.4264423372
H       -1.9121004703    1.6216412842    0.1792068372
H        0.4083563662   -0.0334757167   -1.0339822913
H       -0.3298281112   -1.8368935962    0.2643155090
H       -2.7515123306   -1.6398351029    1.0836429293
H       -1.6245597972   -1.2062219540    2.3642172323
H       -2.4784473870    0.0642373196    1.4770237592
18   
torsion grid (60,)
C       -0.5072566243    4.0114875478    0.0794994913
C        0.0206780024    2.5761121192    0.1767862290
C       -0.9698864771    1.5379303858   -0.3835091778
C       -0.4214379089    0.1361484944   -0.3409908363
C       -0.8558808434   -0.8967747103    0.3974273403
C       -2.0155039349   -0.9183380544    1.3576748230
H       -1.4420979403    4.1282920852    0.6401756571
H        0.2144512165    4.7306281395    0.4819359594
H       -0.7094223313    4.2883708009   -0.9617920454
H        0.2414218748    2.3275815359    1.2219040149
H        0.9723090350    2.4961506067   -0.3644693261
H       -1.1982790448    1.8009439061   -1.4262055643
H       -1.9151192936    1.6092131980    0.1641332113
H        0.4484944455   -0.0360708797   -0.9773018527
H       -0.3167662486   -1.8403053357    0.3035487513
H       -2.7637632794   -1.6583604910    1.0468969773
H       -1.6804397615   -1.2120813097    2.3603427797
H       -2.5156692083    0.0489940360    1.4423638413
18   
torsion grid (75,)
C       -0.5466118169    3.9478198557    0.0997866635
C       -0.0051790770    2.5158658210    0.2037884328
C       -0.9859330072    1.4644159476   -0.3497636988
C       -0.4314555431    0.0662348666   -0.2803208139
C       -0.8861591090   -0.9669735902    0.4454159115
C       -2.0797989036   -0.9938908306    1.3628767455
H       -1.3171828692    4.1382988991    0.8554878990
H        0.2487695415    4.6830028962    0.2659385523
H       -0.9782206358    4.1426239180   -0.8884296663
H        0.2332001092    2.2771986182    1.2468759538
H        0.9389510272    2.4393077078   -0.3510068737
H       -1.2021065560    1.7122700621   -1.3985494704
H       -1.9384805410    1.5386185088    0.1850665942
H        0.4617428206   -0.1031939265   -0.8845036882
H       -0.3379434359   -1.9072417884    0.3741963094
H       -2.8103173450   -1.7410519013    1.0279101167
H       -1.7794543136   -1.2811950490    2.3783455607
H       -2.5904654377   -0.0303590243    1.4249459710
18   
torsion grid (90,)
C       -0.3287245109    4.1422840658   -0.0742872760
C        0.1794616102    2.6952301759    0.0568536656
C       -0.7949300665    1.6596471477   -0.5373731340
C       -0.2716640226    0.2515574351   -0.4348585982
C       -0.7829130008   -0.7697653749    0.2697353095
C       -2.0223430349   -0.7694064636    1.1247104045
H       -0.9260687538    4.4399165550    0.7942860936
H        0.5058244326    4.8500818041   -0.1301890883
H       -0.9353823701    4.2780853812   -0.9761210695
H        0.3742347734    2.4522901615    1.1074005729
H        1.1418967332    2.5947950957   -0.4608907000
H       -0.9541063188    1.9065502445   -1.5964016189
H       -1.7711123080    1.7549337715   -0.0504949524
H        0.6480157945    0.0627827242   -0.9917916967
H       -0.2502754656   -1.7207836492    0.2297859549
H       -2.7492123225   -1.5037004375    0.7551508645
H       -1.7801841112   -1.0580873627    2.1552249243
H       -2.5164513626    0.2041578330    1.1571646552
18   
torsion grid (105,)
C       -0.3696010758    4.1258342014   -0.0627355304
C        0.1380524146    2.6749340599    0.0908290526
C       -0.8069335242    1.6350156197   -0.5434342425
C       -0.2811558366    0.2293711218   -0.4224062084
C       -0.7945189094   -0.7840844757    0.2920330891
C       -2.0390526210   -0.7747312369    1.1395257756
H       -0.7749815023    4.5159558087    0.8764232282
H        0.4376562403    4.8044985747   -0.3576932549
H       -1.1515398950    4.2019862587   -0.8259333087
H        0.2825560858    2.4279273918    1.1482004500
H        1.1241589138    2.5725730038   -0.3782636240
H       -0.9269377380    1.8823135458   -1.6074733927
H       -1.8010683666    1.7258172446   -0.0936870326
H        0.6427655004    0.0359308702   -0.9705038275
H       -0.2599978722   -1.7345663385    0.2674961789
H       -2.7644806537   -1.5119606915    0.7729256968
H       -1.8029948661   -1.0536805019    2.1740977793
H       -2.5322709204    0.1996285130    1.1600979386
18   
torsion grid (120,)
C       -0.3095927643    4.1678724851   -0.0738138978
C        0.1804108241    2.7107952947    0.1006633985
C       -0.7384113392    1.6785317046   -0.5829303158
C       -0.2169853431    0.2715481859   -0.4590189670
C       -0.7474251222   -0.7440372944    0.2397719542
C       -2.0095136561   -0.7353180697    1.0609296329
H       -0.5127594444    4.6479092510    0.8885516318
H        0.4250713795    4.7874162314   -0.5976458266
H       -1.2373720722    4.2091815718   -0.6552475622
H        0.2540906792    2.4558346682    1.1635130756
H        1.1941613728    2.6016255334   -0.3022965686
H       -0.8211031323    1.9373110994   -1.6479841228
H       -1.7473628845    1.7652595169   -0.1672386313
H        0.7181936119    0.0792437142   -0.9879599788
H       -0.2146577282   -1.6956495405    0.2222574519
H       -2.7290928496   -1.4688394962    0.6758303783
H       -1.7959134407   -1.0196186914    2.0989097655
H       -2.5004146557    0.2403411921    1.0758693194
18   
torsion grid (135,)
C       -0.2600855695    4.1793607187   -0.0574726370
C        0.2076544764    2.7200954798    0.1347213166
C       -0.6841973671    1.6995419022   -0.5998892349
C       -0.1695790301    0.2899467384   -0.4762283097
C       -0.7176383905   -0.7283817929    0.2047615619
C       -1.9961887451   -0.7202984532    1.0000813921
H       -0.2551842497    4.7359961382    0.8849300442
H        0.3593591034    4.7214302043   -0.7786640051
H       -1.2910031256    4.2130015756   -0.4292104716
H        0.2080689310    2.4601072413    1.1993940444
H        1.2452870852    2.6054504944   -0.2001891795
H       -0.7289635140    1.9720759427   -1.6639914567
H       -1.7068584717    1.7829356246   -0.2190698506
H        0.7758140438    0.0981505345   -0.9867073733
H       -0.1879279021   -1.6817571299    0.1918661747
H       -2.7102978508   -1.4489548896    0.5960409102
H       -1.8046921596   -1.0114825938    2.0404583921
H       -2.4839401356    0.2570102611    1.0111121641
18   
torsion grid (150,)
C       -0.1285956272    4.2464033907   -0.0869868496
C        0.3100228312    2.7859664486    0.1208557892
C       -0.5682012169    1.7809799403   -0.6498115399
C       -0.0752804515    0.3643596954   -0.5181941019
C       -0.6683501338   -0.6571985746    0.1187909996
C       -1.9867831712   -0.6468785840    0.8461059601
H        0.0965363758    4.8646298222    0.7881506978
H        0.3426051913    4.6973524683   -0.9662674077
H       -1.2141185614    4.3060152315   -0.2329411696
H        0.2590080006    2.5288901017    1.1855699510
H        1.3602087630    2.6604721233   -0.1692729590
H       -0.5744873484    2.0595587224   -1.7135529216
H       -1.6018250953    1.8747776647   -0.3028635136
H        0.8930896970    0.1690444218   -0.9821775093
H       -0.1481227396   -1.6158689025    0.1197691244
H       -2.6870014173   -1.3594264466    0.3920832139
H       -1.8537523308   -0.9584363596    1.8896805801
H       -2.4632790918    0.3360160741    0.8489547308
18   
torsion grid (165,)
C       -0.0800308842    4.2612544953   -0.2019931603
C        0.3549879278    2.8097582468    0.0385769328
C       -0.4955865232    1.7943607353   -0.7483988163
C       -0.0103507553    0.3792276867   -0.5767844461
C       -0.6282100353   -0.6317206446    0.0534887743
C       -1.9724934473   -0.6088488345    0.7315018675
H        0.3450480999    4.9366391211    0.5481375344
H        0.2178473130    4.6139561381   -1.1955006630
H       -1.1706097419    4.3558031479   -0.1325957914
H        0.2759898837    2.5699298630    1.1059236568
H        1.4134240110    2.6874769334   -0.2235226611
H       -0.4604152556    2.0570347867   -1.8155241114
H       -1.5419535001    1.8936125291   -0.4432101412
H        0.9741528148    0.1756767029   -1.0016309569
H       -0.1097154710   -1.5906826473    0.0887075064
H       -2.6544897233   -1.3324345170    0.2673733848
H       -1.8775014188   -0.8978466709    1.7857026589
H       -2.4501118331    0.3728463712    0.6959170589
18   
torsion grid (180,)
C       -0.1118092960    4.2566746096   -0.1789489172
C        0.3437006110    2.8131155323    0.0603008290
C       -0.4924535585    1.7866349527   -0.7272239086
C       -0.0020957665    0.3756796627   -0.5366668508
C       -0.6315830787   -0.6399124322    0.0742915270
C       -1.9974323797   -0.6285870152    0.7080234538
H        0.4967371056    4.9672333472    0.3908157500
H       -0.0338076315    4.5252727674   -1.2390026249
H       -1.1568935638    4.3966055159    0.1212732199
H        0.2841853875    2.5737601513    1.1289707269
H        1.4001496992    2.7083847953   -0.2185313147
H       -0.4423299749    2.0412996053   -1.7954954931
H       -1.5442616537    1.8817112029   -0.4389609410
H        0.9972338980    0.1797214233   -0.9294403830
H       -0.1061381069   -1.5942605934    0.1274449465
H       -2.6572339931   -1.3586967271    0.2225210659
H       -1.9344660850   -0.9159368239    1.7650759235
H       -2.4825643406    0.3486336425    0.6555386065
