16   
torsion grid (-165,)
C       -0.3219425137    0.5584889957    0.3400591457
C        1.0343286707   -1.2131224106   -0.7737247998
C        1.0883023168    1.1491224562   -1.5354612071
C       -1.7690113428   -0.2882076753    1.9955074302
N        0.5264509444    0.1487533411   -0.6334753365
O       -0.7495163697    1.6893096620    0.5053771338
O       -0.6737241937   -0.5046971018    1.1751889237
F       -2.8989807675   -0.7250889748    1.3657393236
F       -1.5914163513   -1.0602660045    3.0960265599
H        0.9632530752   -1.5152909710   -1.8240062259
H        2.0864907164   -1.2667193245   -0.4671052104
H        0.4527342538   -1.9028432793   -0.1679042858
H        2.1735267439    1.2224929799   -1.3943366085
H        0.8885053807    0.8653984762   -2.5746822418
H        0.6320412811    2.1157458121   -1.3308167179
H       -1.8952125088    0.7561499629    2.2747791288
16   
torsion grid (-150,)
C       -0.2384421095    0.6091034622    0.4181189129
C        0.9968400892   -1.2099638079   -0.7587207463
C        1.0715184448    1.1433373388   -1.5445371980
C       -1.7610264245   -0.3062323566    1.9588049245
N        0.5332763280    0.1662360022   -0.6028218962
O       -0.6444565877    1.7469669441    0.5860240418
O       -0.5468521717   -0.4288733522    1.3061222769
F       -2.7450407501   -0.8728371827    1.1947165464
F       -1.6673133596   -1.0271681373    3.1014038302
H        0.8554738035   -1.5181020603   -1.8000263278
H        2.0635406056   -1.2891878590   -0.5144249575
H        0.4336403989   -1.8778008473   -0.1124522276
H        2.1650676166    1.1816903204   -1.4701538893
H        0.7994505951    0.8602931781   -2.5673199032
H        0.6590537661    2.1251364910   -1.3201987627
H       -2.0289009091    0.7266278105    2.1766303880
16   
torsion grid (-135,)
C       -0.1540226253    0.6720833383    0.4976196485
C        0.9527491927   -1.2031684796   -0.7217240359
C        1.0496995454    1.1334075374   -1.5496413121
C       -1.7435294208   -0.3305494140    1.8992102426
N        0.5459170511    0.1897525581   -0.5558883112
O       -0.5261708367    1.8210807173    0.6642242420
O       -0.4427873316   -0.3357521542    1.4320335668
F       -2.5521490188   -0.9861618928    1.0065551971
F       -1.7519987867   -1.0382549914    3.0521380063
H        0.6976851309   -1.5327895744   -1.7345973920
H        2.0363692603   -1.3058364612   -0.5851162509
H        0.4414406339   -1.8376648890   -0.0032302019
H        2.1462934503    1.1319995665   -1.5535659685
H        0.6952050779    0.8459184237   -2.5456279628
H        0.6892355768    2.1326438655   -1.3131325099
H       -2.1381075638    0.6725177939    2.0619080541
16   
torsion grid (-120,)
C       -0.0762617092    0.7472479070    0.5723866895
C        0.8963598068   -1.1908981605   -0.6673473550
C        1.0296076166    1.1238025221   -1.5463823181
C       -1.7143380501   -0.3650569421    1.8168836832
N        0.5626907922    0.2211230787   -0.4975786324
O       -0.4026555111    1.9094734053    0.7331559071
O       -0.3700921205   -0.2282645106    1.5486385043
F       -2.3104325586   -1.1182702681    0.8314598579
F       -1.8224351046   -1.0549378814    2.9740244084
H        0.4858810683   -1.5498217180   -1.6176475001
H        1.9849978705   -1.3207083090   -0.6865279289
H        0.4805063389   -1.7816994660    0.1433381999
H        2.1202421244    1.0624371482   -1.6384750602
H        0.5802980924    0.8427390409   -2.5055049113
H        0.7423978805    2.1438621770   -1.2988482189
H       -2.2409372011    0.5881979207    1.8895896867
16   
torsion grid (-105,)
C        0.0090175403    0.8053824040    0.6473556507
C        0.8376894356   -1.1824383419   -0.6223184002
C        0.9938100701    1.1138743085   -1.5406133235
C       -1.6836543051   -0.3917685438    1.7329435919
N        0.5487069824    0.2405039576   -0.4574496017
O       -0.2120211845    1.9874810717    0.8320679116
O       -0.3333985299   -0.1480313556    1.6365978932
F       -2.1027592387   -1.1861104917    0.6877604010
F       -1.8844486568   -1.0878024814    2.8732591937
H        0.2806321064   -1.5777030416   -1.4788114902
H        1.9094101039   -1.3203837688   -0.8071680507
H        0.5554799401   -1.7363922702    0.2677413512
H        2.0859868032    1.0819639350   -1.6328038992
H        0.5521921501    0.7781469012   -2.4851353907
H        0.6783983054    2.1347786338   -1.3345485218
H       -2.2892121870    0.5177250273    1.7322876967
16   
torsion grid (-90,)
C        0.0994452041    0.8311220566    0.7123808044
C        0.7816854798   -1.1791328783   -0.6085193647
C        0.9441922372    1.1152402349   -1.5307898984
C       -1.6561014213   -0.4109669596    1.6673249211
N        0.4970918639    0.2463967951   -0.4433638335
O        0.0393639378    2.0233770310    0.9392995352
O       -0.3183166439   -0.0973959073    1.7000867067
F       -1.9373351793   -1.2921089840    0.6460154378
F       -1.9466641509   -1.0405635272    2.8271433290
H        0.1464350968   -1.6017150912   -1.3935674618
H        1.8318791970   -1.3069865308   -0.8959991728
H        0.5997460168   -1.7161683792    0.3175347121
H        2.0388213644    1.1856414819   -1.5514272686
H        0.5998356543    0.6979554588   -2.4818579278
H        0.5273331866    2.1117039701   -1.3956636900
H       -2.3015825077    0.4628271732    1.5425681835
16   
torsion grid (-75,)
C        0.1898916502    0.8220686268    0.7760751179
C        0.7270597612   -1.1685868735   -0.6335369791
C        0.8878372436    1.1442801081   -1.5037452445
C       -1.6255054996   -0.4470817886    1.6074711311
N        0.4317185406    0.2539732215   -0.4352609220
O        0.3143890565    1.9959619765    1.0558986245
O       -0.3084323410   -0.0781595337    1.7495933591
F       -1.7532639466   -1.5908687026    0.8530343161
F       -2.0996353629   -0.7418971168    2.8394284285
H        0.0576935485   -1.5944952092   -1.3869684819
H        1.7626707924   -1.2754762886   -0.9774399674
H        0.6051776427   -1.7190759685    0.2944917904
H        1.9786688809    1.2606503764   -1.4857979344
H        0.5919998077    0.7141998490   -2.4644699606
H        0.4293438313    2.1250239684   -1.3852019520
H       -2.2437842701    0.3287092986    1.1475936863
16   
torsion grid (-60,)
C        0.2551601751    0.8290906317    0.8405363106
C        0.5859203189   -1.1183520915   -0.6922017214
C        0.8835246084    1.2181187223   -1.4516252246
C       -1.5382892385   -0.5813808011    1.5464040348
N        0.3940182790    0.3082328056   -0.4146879840
O        0.5321827717    1.9582541275    1.1783152019
O       -0.2842504079   -0.0679655194    1.7840691605
F       -1.4933121939   -1.9423996597    1.6726240544
F       -2.3975594582   -0.1290992774    2.4968124291
H       -0.1063452445   -1.4511009430   -1.4730902210
H        1.6112995241   -1.2883289470   -1.0421286276
H        0.4260667636   -1.7166654760    0.2009608340
H        1.9800802077    1.2538844830   -1.4636091251
H        0.5278723204    0.8646471702   -2.4233815850
H        0.5038130281    2.2221297329   -1.2673021231
H       -1.9343521186   -0.3298390142    0.5594695984
16   
torsion grid (-45,)
C        0.2940836002    0.8394325515    0.8576768533
C        0.5452032362   -1.1068636319   -0.6836713021
C        0.8634502775    1.2204970587   -1.4437672635
C       -1.5243809742   -0.5946264623    1.5204438067
N        0.3412678666    0.3217642925   -0.4108768342
O        0.7027076738    1.9273871162    1.1944990953
O       -0.3315092902    0.0252119203    1.8172413330
F       -1.3967423826   -1.9416134278    1.7247637090
F       -2.4715914093   -0.1568252561    2.3895868689
H       -0.1494276847   -1.4501608519   -1.4574530573
H        1.5700103010   -1.2691366295   -1.0393860916
H        0.4001544532   -1.7053138712    0.2122211847
H        1.9602844919    1.2465144286   -1.4355436103
H        0.5206312537    0.8628566320   -2.4183436003
H        0.4902089046    2.2299602544   -1.2754103120
H       -1.8685209821   -0.4198581795    0.4991842323
16   
torsion grid (-30,)
C        0.3166720071    0.8436186989    0.8641060376
C        0.5170698930   -1.0947508319   -0.6848087549
C        0.8524828066    1.2220658863   -1.4400376200
C       -1.5214083458   -0.6032375651    1.5128949903
N        0.2920661021    0.3342988013   -0.4154980148
O        0.8389563332    1.8819050283    1.1991242965
O       -0.3976878049    0.1262819373    1.8317662359
F       -1.3003960210   -1.9279713693    1.7782649993
F       -2.5280396977   -0.2051997530    2.3318577933
H       -0.1544587135   -1.4402440857   -1.4773435795
H        1.5525313257   -1.2496095812   -1.0129595587
H        0.3544461425   -1.7001147539    0.2034426067
H        1.9493255090    1.2283682669   -1.4138197087
H        0.5181045653    0.8679110849   -2.4187357050
H        0.4949442194    2.2390265649   -1.2819906914
H       -1.8387789855   -0.4931223845    0.4749016852
16   
torsion grid (-15,)
C        0.3282547883    0.8420854864    0.8646439296
C        0.4962544364   -1.0852725502   -0.6949221268
C        0.8488532280    1.2238308389   -1.4367880351
C       -1.5240452881   -0.6062125830    1.5170043200
N        0.2525777098    0.3432650495   -0.4239406913
O        0.9454230739    1.8258856122    1.2007928850
O       -0.4758743592    0.2303081491    1.8297470399
F       -1.2021396236   -1.8980909600    1.8411130830
F       -2.5730049426   -0.2576657536    2.3019660892
H       -0.1437653734   -1.4236735952   -1.5156634012
H        1.5443412880   -1.2350829840   -0.9841972437
H        0.3024869196   -1.7019022880    0.1792070407
H        1.9450098767    1.2116411810   -1.3932915954
H        0.5228483408    0.8764870047   -2.4206792750
H        0.5056099688    2.2466927084   -1.2839551725
H       -1.8270007080   -0.5630693722    0.4701281656
16   
torsion grid (0,)
C        0.3173172297    0.8498611156    0.8587900933
C        0.4650073435   -1.0737919390   -0.7124526948
C        0.8724949433    1.2260754472   -1.4326376833
C       -1.5261509276   -0.6171641281    1.5291724416
N        0.2309098387    0.3569177120   -0.4361481266
O        0.9942214567    1.7898929072    1.2039589373
O       -0.5748745064    0.3380863505    1.8030730165
F       -1.0808051712   -1.8540405231    1.9203884108
F       -2.6084377268   -0.3311371447    2.2914575193
H       -0.1737939902   -1.4023722444   -1.5381592270
H        1.5131537621   -1.2307807034   -0.9979740432
H        0.2656626032   -1.6959071925    0.1564112743
H        1.9669827078    1.1816203167   -1.3712832569
H        0.5527068513    0.8932832953   -2.4236623617
H        0.5562526579    2.2577535512   -1.2806395676
H       -1.8248177366   -0.6590708764    0.4808702803
16   
torsion grid (15,)
C       -1.0166015776    0.5984135334   -0.4158331496
C        0.8672757042   -1.0202459959   -0.3375552679
C        1.1549871615    1.2733175461   -1.1520720838
C       -1.3257707899   -0.5624139382    1.7080903849
N        0.3440208707    0.3580615765   -0.3387823622
O       -1.5502537915    1.3717727204   -1.1766791486
O       -1.8236059934   -0.0092585737    0.5494634790
F       -2.1260069958   -0.1642788910    2.7274414528
F       -1.4149278872   -1.9284623640    1.6482405861
H        1.1438517056   -1.3135950606   -1.3583693795
H        1.7576898668   -1.0805921282    0.2959097513
H        0.1299388804   -1.7328309913    0.0236054403
H        2.1966947850    1.1732646685   -0.8361550656
H        1.0775917611    1.0451060463   -2.2223661495
H        0.8264684731    2.2996135767   -0.9901704159
H       -0.2955228374   -0.2786457808    1.9263969402
16   
torsion grid (30,)
C       -1.0159678581    0.6021945494   -0.4047839676
C        0.8584034434   -1.0351460623   -0.3555745465
C        1.1583838711    1.2714943077   -1.1555337161
C       -1.3223770902   -0.5593189660    1.7046853733
N        0.3360646584    0.3403937200   -0.3753276435
O       -1.5554327232    1.4464453582   -1.0824825147
O       -1.8089009889   -0.1249709150    0.4917294140
F       -2.1666228268   -0.1274376831    2.6758544048
F       -1.3443476303   -1.9275353096    1.7457850314
H        1.1745186798   -1.3241180743   -1.3657285881
H        1.7234982501   -1.1013085513    0.3120042647
H        0.1040561696   -1.7452703534   -0.0260498695
H        2.1965393915    1.1655429477   -0.8298158965
H        1.0944973645    1.0640556756   -2.2310238681
H        0.8263232812    2.2938955789   -0.9781824444
H       -0.3128066568   -0.2096902784    1.9256095789
16   
torsion grid (45,)
C       -1.0081156926    0.6035877105   -0.3822999993
C        0.8585872562   -1.0524024849   -0.3809051598
C        1.1619680771    1.2685470264   -1.1662639599
C       -1.3312883451   -0.5517668556    1.7065547370
N        0.3321957666    0.3181035356   -0.4210176114
O       -1.5547473200    1.5171370269   -0.9573563150
O       -1.7780932475   -0.2326254480    0.4441184865
F       -2.2341995653   -0.1016400125    2.6156338453
F       -1.2860272454   -1.9129366212    1.8391458410
H        1.2035094463   -1.3416509018   -1.3811347138
H        1.7056353743   -1.1153474955    0.3102177244
H        0.0948589036   -1.7605429365   -0.0693582863
H        2.1970068538    1.1601139683   -0.8313495993
H        1.1120947126    1.0833166151   -2.2465380785
H        0.8217021022    2.2848818992   -0.9714523438
H       -0.3492577413   -0.1375490819    1.9431704449
16   
torsion grid (60,)
C       -0.9880503634    0.6040316880   -0.3434037221
C        0.8677263143   -1.0697503415   -0.4193525803
C        1.1694500488    1.2638108418   -1.1860617918
C       -1.3587738651   -0.5408977496    1.7195654135
N        0.3366743632    0.2956596976   -0.4705791159
O       -1.5388411081    1.5822751357   -0.7967420754
O       -1.7298020855   -0.3257717730    0.4123727769
F       -2.3471441967   -0.1078507346    2.5452617815
F       -1.2314228206   -1.8861181141    1.9304941064
H        1.2083765491   -1.3675661580   -1.4183554416
H        1.7197141685   -1.1217072538    0.2670565937
H        0.1071523086   -1.7744582803   -0.0934914132
H        2.2013783631    1.1613489955   -0.8391228336
H        1.1376161771    1.0916096447   -2.2692009013
H        0.8147383469    2.2733004951   -0.9828273194
H       -0.4229628649   -0.0486901494    1.9955515347
16   
torsion grid (75,)
C       -0.9212444412    0.6210348797   -0.2824748647
C        0.8146927632   -1.1554798311   -0.5447432391
C        1.2342023360    1.2008603355   -1.1804615155
C       -1.4407497595   -0.4053437315    1.7849606178
N        0.3656860296    0.2397012614   -0.4991380929
O       -1.4182908585    1.6817348833   -0.5982061827
O       -1.6932369279   -0.3249400785    0.4356018658
F       -2.5798144963   -0.8167470733    2.3872182838
F       -0.4831189279   -1.3527572459    2.0662001391
H        1.1373634544   -1.3953782983   -1.5648006715
H        1.6562511779   -1.3066032453    0.1379347821
H        0.0097171830   -1.8273750067   -0.2624278440
H        2.2675125525    1.0110767634   -0.8775871039
H        1.1581934879    1.1023236905   -2.2705491496
H        0.9510656455    2.2144709964   -0.9001862183
H       -1.1123998830    0.5426476447    2.2198242057
16   
torsion grid (90,)
C       -0.8573292429    0.6582225688   -0.1997052974
C        0.7902439839   -1.1804774477   -0.5947242579
C        1.2642543624    1.1668412189   -1.2323353150
C       -1.5052042842   -0.3751740797    1.8125069532
N        0.3728476028    0.2213584731   -0.5624553526
O       -1.2996131463    1.7811290231   -0.3412679041
O       -1.6407133935   -0.3329148419    0.4454224158
F       -2.5174254196   -1.1321613303    2.2903942619
F       -0.3291070614   -0.9926888085    2.1786323889
H        1.0609004471   -1.4533442345   -1.6214604788
H        1.6610883481   -1.3293127468    0.0517258930
H       -0.0132642053   -1.8275919844   -0.2560458794
H        2.2873397064    0.9969618643   -0.8835144064
H        1.2345511721    1.0299730898   -2.3204438475
H        0.9605044492    2.1847834912   -0.9946373695
H       -1.5232439834    0.6136216886    2.2790732077
16   
torsion grid (105,)
C       -0.7883876160    0.6603256152   -0.1134475563
C        0.8039711768   -1.1916329866   -0.6468931887
C        1.2694420950    1.1579251077   -1.2839480960
C       -1.5695205328   -0.3626826119    1.8409558248
N        0.3828538932    0.2074144801   -0.6172609025
O       -1.1839563203    1.8108042477   -0.1001527887
O       -1.5685197018   -0.3697708583    0.4656286410
F       -2.5514211169   -1.1979930683    2.2451706603
F       -0.3797573513   -0.8633443978    2.3235027742
H        0.9953493350   -1.4942694177   -1.6829032752
H        1.7266233194   -1.3153439163   -0.0692714900
H        0.0353703313   -1.8320412374   -0.2250266387
H        2.2753108009    1.0793815761   -0.8574785711
H        1.3252562793    0.9408308030   -2.3573291162
H        0.8910459065    2.1679447617   -1.1392978750
H       -1.7178311628    0.6316778469    2.2689166103
16   
torsion grid (120,)
C       -0.6998482810    0.6320086405   -0.0234486909
C        0.8510874448   -1.2026302091   -0.7077922557
C        1.2744313620    1.1631186043   -1.3171920797
C       -1.6608626447   -0.3468440429    1.8706743590
N        0.4310153339    0.1938698144   -0.6230371330
O       -1.0674541629    1.7873180743    0.0932804841
O       -1.4637962840   -0.4274113067    0.5090196189
F       -2.6639581972   -1.1980975611    2.1797730866
F       -0.5342488887   -0.7812112896    2.5293052669
H        0.8561784808   -1.5317186375   -1.7538004896
H        1.8656436408   -1.3020794777   -0.3063937365
H        0.1808609655   -1.8383066719   -0.1368523351
H        2.2885427259    1.1349450081   -0.9032374688
H        1.3249964112    0.9236026068   -2.3858740656
H        0.8592243736    2.1606983578   -1.1879058958
H       -1.8959829445    0.6619640343    2.2146463474
16   
torsion grid (135,)
C       -0.6059459498    0.5899233235    0.0640085990
C        0.9028173785   -1.2155364347   -0.7642068312
C        1.2787178037    1.1694860227   -1.3375517216
C       -1.7497945125   -0.3235323468    1.8955972969
N        0.5002952203    0.1789455644   -0.5991782554
O       -0.9749578077    1.7400023754    0.2289585686
O       -1.3252836153   -0.4950981206    0.5919231818
F       -2.7522411263   -1.2075514567    2.1048694098
F       -0.7297575959   -0.6460126320    2.7541067440
H        0.7146240885   -1.5532079351   -1.7909643364
H        1.9752165333   -1.3030445498   -0.5608532578
H        0.3581347595   -1.8536308087   -0.0738361102
H        2.3257015463    1.1286414732   -1.0179597225
H        1.2320292179    0.9655484506   -2.4141090921
H        0.8792970492    2.1622442789   -1.1394023944
H       -2.0830236541    0.6920487396    2.1097629338
16   
torsion grid (150,)
C       -0.5160519725    0.5599504730    0.1517082907
C        0.9357039356   -1.2254216698   -0.8101802465
C        1.2673143105    1.1710164921   -1.3650302059
C       -1.8062682984   -0.3039286095    1.9179030276
N        0.5413332217    0.1644324924   -0.5963315281
O       -0.8770134061    1.7071799873    0.3556268668
O       -1.1853475903   -0.5392669251    0.7032173730
F       -2.7975685212   -1.2190871381    2.0359848034
F       -0.9160866689   -0.5283483780    2.9324644496
H        0.6801600781   -1.5479755409   -1.8272473382
H        2.0196196367   -1.3128809217   -0.6804354110
H        0.4400140750   -1.8769928015   -0.0956289061
H        2.3331278398    1.1304423340   -1.1147076692
H        1.1520563881    0.9855160872   -2.4398134905
H        0.8777034333    2.1583064089   -1.1245328945
H       -2.2028671260    0.7062836539    2.0081678911
16   
torsion grid (165,)
C       -0.4258272408    0.5408116601    0.2382173197
C        0.9519072478   -1.2325525391   -0.8448594610
C        1.2578312825    1.1726396117   -1.3807234579
C       -1.8483165482   -0.2924015562    1.9215704418
N        0.5800963406    0.1552223205   -0.5834635637
O       -0.7848152831    1.6852855815    0.4626658990
O       -1.0364918732   -0.5659636903    0.8323001905
F       -2.7897203737   -1.2675182208    1.9609626998
F       -1.1130642707   -0.3853113078    3.0679210174
H        0.6135782522   -1.5432809805   -1.8413547428
H        2.0424547742   -1.3237102738   -0.8046566705
H        0.5148902117   -1.8925966216   -0.1002291917
H        2.3391213929    1.1136045772   -1.2147794282
H        1.0576872900    1.0171341410   -2.4479317570
H        0.9005151556    2.1577646226   -1.0869813034
H       -2.3140170223    0.6900986196    1.8725070200
16   
torsion grid (180,)
C       -0.3780715117    0.5359407387    0.2871993904
C        1.0584347543   -1.2095146706   -0.7707514077
C        1.1383061668    1.1633773564   -1.4912416871
C       -1.8092696439   -0.2941090778    1.9730544096
N        0.5869505603    0.1600197782   -0.5863595049
O       -0.8223823043    1.6623067008    0.4391361121
O       -0.8184153167   -0.5535973980    1.0405301755
F       -3.0019733635   -0.7484303567    1.4943022103
F       -1.5150597633   -1.0217701796    3.0819024021
H        0.7618270469   -1.5833240306   -1.7585356767
H        2.1520463467   -1.2299129440   -0.7063501112
H        0.6474809871   -1.8634210462   -0.0065688789
H        2.2290418616    1.1948973563   -1.3911906519
H        0.8885832863    0.9158992408   -2.5301074335
H        0.7238496091    2.1388679915   -1.2442560078
H       -1.8955193802    0.7619964849    2.2204016717
