21   
torsion grid (-165,)
C        0.6581729070    1.2773276504   -1.7581569876
C       -0.1153563621    2.2943396869   -2.3835687894
C        0.1360959709    0.0237142720   -1.6127908180
C       -1.3533839809    1.9689306106   -2.8642409067
C       -1.2056229532   -0.3144024034   -2.0467562053
C       -3.0368579380   -0.9346322568   -4.2563460474
C       -3.6225968423    1.4564394460   -4.4309088688
C       -3.1832411382    0.3679344625   -3.4439562303
N       -1.9037568718    0.7188784536   -2.7386639588
O       -1.7486261217   -1.3989181627   -1.8052209747
H        1.6589544742    1.5000212136   -1.3950187987
H        0.2549067826    3.3060380406   -2.5032762661
H        0.6822857151   -0.7814256477   -1.1328104342
H       -1.9530879900    2.7118292736   -3.3686226316
H       -2.2287379866   -0.8293241170   -4.9891951632
H       -2.8329780405   -1.7963215441   -3.6278364249
H       -3.9680616286   -1.1072642707   -4.8047787579
H       -2.8598249522    1.6302749693   -5.1960884708
H       -3.8739800118    2.4098339430   -3.9557962581
H       -4.5279069496    1.1090951781   -4.9348562342
H       -3.9449572291    0.2250397153   -2.6710889957
21   
torsion grid (-150,)
C        0.6847387078    1.3386329433   -1.7615252100
C       -0.2046183009    2.3597321149   -2.2004377199
C        0.2788564340    0.0365355380   -1.7934521763
C       -1.4198083755    1.9900065357   -2.7021608796
C       -1.0524599054   -0.3599011570   -2.2213837931
C       -3.2138051254   -0.9973517150   -4.1186680432
C       -3.4439931193    1.4256589560   -4.5747309410
C       -3.1577449046    0.3959042787   -3.4665335769
N       -1.8447043184    0.6853095895   -2.7844938276
O       -1.4829964903   -1.5085303378   -2.0807202055
H        1.6755465090    1.5970321326   -1.3947605992
H        0.0605144706    3.4100803117   -2.1620607312
H        0.9077024040   -0.7772043050   -1.4478999443
H       -2.1084941937    2.7404419657   -3.0610646648
H       -2.3673708370   -1.1393217019   -4.7987386248
H       -3.2046161691   -1.8043456268   -3.3936394485
H       -4.1333687805   -1.0516995570   -4.7096638682
H       -2.6080352656    1.4771174282   -5.2795398087
H       -3.6556154905    2.4333729695   -4.2087791654
H       -4.3316597582    1.1036924096   -5.1242550072
H       -3.9374029499    0.4559413957   -2.6981066820
21   
torsion grid (-135,)
C        0.6704100721    1.3857909820   -1.6307831494
C       -0.3013921060    2.3732038429   -1.9649470040
C        0.4175285262    0.0759650491   -1.9106079306
C       -1.4420653897    1.9673085499   -2.5922374944
C       -0.8167230880   -0.3795811878   -2.5361690613
C       -3.4122955046   -1.0269415175   -3.9009814472
C       -3.2827007754    1.3212771891   -4.7610414271
C       -3.0700656570    0.4193279286   -3.5323373623
N       -1.7016864717    0.6620510279   -2.9448366581
O       -1.0602010518   -1.5749349617   -2.7199952707
H        1.5989537283    1.6751792439   -1.1438923038
H       -0.1641825192    3.4213825048   -1.7250906022
H        1.1132298183   -0.7164080160   -1.6553703767
H       -2.2171465682    2.6829961799   -2.8339506013
H       -2.7368616528   -1.4252908613   -4.6600356078
H       -3.3856765196   -1.6967506384   -3.0448739128
H       -4.4289489869   -1.0141018526   -4.3107668954
H       -2.5705106651    1.0584629392   -5.5503251171
H       -3.1791006862    2.3877895473   -4.5526583955
H       -4.2932289888    1.1626066901   -5.1483243365
H       -3.7745466254    0.7328158548   -2.7510865582
21   
torsion grid (-120,)
C        0.6127986572    1.3833582787   -1.5519723920
C       -0.3824497258    2.3688264230   -1.8187155339
C        0.4301123388    0.1035052753   -1.9864756567
C       -1.4965752829    1.9850655687   -2.5054029728
C       -0.7421036634   -0.3167143979   -2.7410926299
C       -3.4899927157   -0.9885530956   -3.7417219297
C       -3.2016901182    1.2553569706   -4.8826997791
C       -3.0576416818    0.4679077292   -3.5723676105
N       -1.6953859408    0.7113589652   -2.9828260627
O       -0.8852946235   -1.4647585727   -3.1719004596
H        1.5091175298    1.6515469244   -0.9972749272
H       -0.2854056905    3.3928229766   -1.4767482923
H        1.1560957288   -0.6808451024   -1.7999194318
H       -2.3005646864    2.6864418562   -2.7001233774
H       -2.9314783561   -1.5005436794   -4.5241200627
H       -3.3781871826   -1.5606057922   -2.8202892838
H       -4.5523559279   -0.9703392549   -4.0128489245
H       -2.5256436518    0.8532838817   -5.6444004811
H       -2.9791112032    2.3184813124   -4.7588219974
H       -4.2273498714    1.1666958618   -5.2542823424
H       -3.7447811449    0.9107229596   -2.8409793406
21   
torsion grid (-105,)
C        0.5981433121    1.3425934459   -1.5687327927
C       -0.4286195644    2.3197073256   -1.7220479042
C        0.4559378026    0.1094388655   -2.1369864153
C       -1.5463517147    1.9698091201   -2.4230679246
C       -0.7039011585   -0.2566539279   -2.9346105910
C       -3.5204125338   -0.9648575957   -3.6609231854
C       -3.1140409292    1.1668725188   -5.0077400262
C       -3.0505205146    0.4901848360   -3.6332345467
N       -1.7116702995    0.7404189179   -3.0095631117
O       -0.8074500549   -1.3315799493   -3.5346741340
H        1.4919510500    1.5810656171   -0.9966755199
H       -0.3518333665    3.3086665706   -1.2851645088
H        1.2143274287   -0.6611682614   -2.0466139310
H       -2.3761003268    2.6588909011   -2.5450840144
H       -3.0093861102   -1.5536936285   -4.4199775548
H       -3.3692838475   -1.4537761591   -2.6957723995
H       -4.5957338422   -0.9520624481   -3.8736169770
H       -2.4126483294    0.6907919319   -5.7001940972
H       -2.8643102177    2.2302901907   -4.9429354495
H       -4.1227863029    1.0759135258   -5.4234308397
H       -3.7456046924    1.0209455084   -2.9728679853
21   
torsion grid (-90,)
C        0.5498409038    1.3109895754   -1.5837380428
C       -0.5087247014    2.2647615228   -1.6023554754
C        0.4334722257    0.1439072011   -2.2848302831
C       -1.6353329221    1.9591837552   -2.3123238528
C       -0.7351452431   -0.1675427763   -3.0891087761
C       -3.6111247071   -0.8876722849   -3.5587707551
C       -3.0612666355    1.0730991805   -5.1196418103
C       -3.0908253493    0.5466057941   -3.6809561040
N       -1.7748317625    0.7953122932   -3.0214937343
O       -0.8340826102   -1.1672828281   -3.8099682955
H        1.4509546603    1.5148563729   -1.0097380292
H       -0.4480445352    3.2019172492   -1.0612922376
H        1.2200518697   -0.6032148024   -2.3000201748
H       -2.4871471239    2.6312714531   -2.3449061117
H       -3.0937583485   -1.5724012630   -4.2272982839
H       -3.5005918111   -1.2581224807   -2.5352646655
H       -4.6794960550   -0.8772102311   -3.8018976309
H       -2.3479042086    0.5013348382   -5.7201457944
H       -2.7710268091    2.1281997744   -5.1440747076
H       -4.0523120884    0.9765981205   -5.5751416429
H       -3.7870277247    1.1745297313   -3.1151309672
21   
torsion grid (-75,)
C        0.5517934090    1.3047504367   -1.5998521192
C       -0.5595034838    2.1869122773   -1.4762581645
C        0.4794911924    0.2185950245   -2.4271160851
C       -1.6885262989    1.9018470356   -2.1926646039
C       -0.7015951183   -0.0786212551   -3.2155680181
C       -3.6381967728   -0.8294824964   -3.4654404938
C       -2.9620897358    0.9287656506   -5.2100665307
C       -3.0756450200    0.5713886733   -3.7243903161
N       -1.7830672485    0.8205119630   -3.0263598407
O       -0.7897459421   -1.0196111606   -4.0142719922
H        1.4600299347    1.4982181865   -1.0335275047
H       -0.5337045971    3.0575526203   -0.8313081757
H        1.3071632953   -0.4722498559   -2.5487777850
H       -2.5744917565    2.5257810398   -2.1316223407
H       -3.0582623424   -1.5961563863   -3.9767604704
H       -3.6447351417   -1.0507079320   -2.3931868225
H       -4.6726721112   -0.8600224318   -3.8240109115
H       -2.2600002098    0.2601995697   -5.7127274721
H       -2.6190209347    1.9608239300   -5.3344535217
H       -3.9420274637    0.8316321635   -5.6889481775
H       -3.7688142640    1.2832137448   -3.2651011811
21   
torsion grid (-60,)
C        0.5674920783    1.3126239881   -1.6072627907
C       -0.5934058624    2.0961982500   -1.3503422812
C        0.5300928853    0.3136411011   -2.5400452689
C       -1.7262174365    1.8197469099   -2.0642882452
C       -0.6675325872    0.0022954347   -3.2969896326
C       -3.6961791270   -0.7321036812   -3.3757344959
C       -2.8961462214    0.8099447890   -5.2496467799
C       -3.0648170351    0.6168690677   -3.7385517440
N       -1.7863893408    0.8248285975   -3.0023788964
O       -0.7467270090   -0.9049545877   -4.1350784414
H        1.4853683542    1.5110265596   -1.0584732743
H       -0.5977729750    2.8945705685   -0.6173930615
H        1.3941130881   -0.3041552395   -2.7611263486
H       -2.6420180444    2.3837631632   -1.9193422655
H       -3.0742611627   -1.5562691227   -3.7274779331
H       -3.8240976340   -0.8214115417   -2.2920145561
H       -4.6830281785   -0.8086508583   -3.8441320159
H       -2.2887662612    0.0153923492   -5.6819701189
H       -2.4243874173    1.7739183118   -5.4668711578
H       -3.8847113479    0.8014429708   -5.7208235281
H       -3.7253301982    1.4085239715   -3.3727696506
21   
torsion grid (-45,)
C        0.5521702898    1.3241611198   -1.6153260803
C       -0.6564597638    1.9844573767   -1.2518061703
C        0.5602811675    0.4271763262   -2.6465737765
C       -1.7816609292    1.7097082356   -1.9773070268
C       -0.6376784978    0.0906155933   -3.3939929174
C       -3.7929940330   -0.6133571744   -3.3105163272
C       -2.8916250028    0.6834052908   -5.2979286935
C       -3.0705817094    0.6577095268   -3.7758123146
N       -1.7971129260    0.8159962666   -3.0150512016
O       -0.6844206658   -0.7744571047   -4.2769222693
H        1.4689358270    1.5353924621   -1.0694737027
H       -0.6994577398    2.6979016572   -0.4370661628
H        1.4594623682   -0.0994408286   -2.9486995120
H       -2.7283731657    2.1961493708   -1.7646406794
H       -3.1902965989   -1.4935718125   -3.5469366302
H       -3.9744237101   -0.5903145652   -2.2310084436
H       -4.7577166533   -0.7042348069   -3.8204622178
H       -2.4475543460   -0.2380206847   -5.6676167968
H       -2.2583448626    1.5213783800   -5.6065723442
H       -3.8786274523    0.8211790619   -5.7530811298
H       -3.6708899267    1.5276632844   -3.4953054149
21   
torsion grid (-30,)
C        0.5903201911    1.2692434303   -1.5682103885
C        0.7047611855    0.4355585256   -2.7184560638
C       -0.6297888146    1.7596230891   -1.1992442855
C       -0.4365172976    0.1297595650   -3.4029523097
C       -1.8432065092    1.4919743052   -1.9534349015
C       -3.0216406685    0.9811103441   -5.0837635213
C       -4.1437737106   -0.0555787628   -3.0720930654
C       -2.8304489681    0.0933763888   -3.8460699133
N       -1.6725364051    0.6097345093   -3.0521356886
O       -2.9374786265    2.0067618036   -1.6984837136
H        1.4759613769    1.5130647499   -0.9857900589
H        1.6561527451    0.0313790765   -3.0444169487
H       -0.7576870840    2.4018256374   -0.3341994388
H       -0.4197571188   -0.5232936585   -4.2699646763
H       -3.2934536109    1.9948492981   -4.7757001480
H       -2.1075893520    1.0350408275   -5.6841697241
H       -3.8242230416    0.5842005577   -5.7139828684
H       -4.6204023971    0.9034996433   -2.8849560640
H       -3.9917690904   -0.5529550894   -2.1101191244
H       -4.8091568512   -0.6829641173   -3.6763976795
H       -2.5205572778   -0.9054382994   -4.1670829102
21   
torsion grid (-15,)
C        0.6217894928    1.3088667683   -1.5850667266
C        0.7059374156    0.5629804502   -2.7970895760
C       -0.5965193253    1.7045283129   -1.1148522909
C       -0.4570430332    0.2550538096   -3.4405844109
C       -1.8421169068    1.4218787046   -1.8125695198
C       -2.9584696659    0.8650126769   -5.1098661411
C       -4.2082573670    0.0875740611   -3.0748803355
C       -2.8506290467    0.0996643519   -3.7815044665
N       -1.6953910144    0.6527746945   -2.9988288611
O       -2.9393566782    1.8406160216   -1.4309104272
H        1.5273471017    1.5567943568   -1.0359741164
H        1.6531786303    0.2241721912   -3.2005760595
H       -0.7063733850    2.2719957819   -0.1966922335
H       -0.4567761166   -0.3397219018   -4.3483283523
H       -3.2087039944    1.9125493761   -4.9162355925
H       -2.0248547605    0.8366783485   -5.6801575500
H       -3.7491120388    0.4309789018   -5.7302491752
H       -4.6237265242    1.0869432482   -2.9645197567
H       -4.1541020841   -0.3658726518   -2.0832834884
H       -4.8813122668   -0.5183721596   -3.6930810418
H       -2.5746297706   -0.9396363039   -3.9878740314
21   
torsion grid (0,)
C        0.6712338420    1.3115907537   -1.6074446317
C        0.7360135742    0.6365674385   -2.8614515528
C       -0.5436806513    1.5962396682   -1.0578708313
C       -0.4371705002    0.3108860671   -3.4752971718
C       -1.8061265617    1.2493718167   -1.6965165416
C       -2.8654198481    0.7206185452   -5.1400411081
C       -4.2183656744    0.1656420812   -3.1209249339
C       -2.8290467299    0.0515985638   -3.7540518525
N       -1.6779579392    0.6222703994   -2.9689441922
O       -2.9006230801    1.5081174081   -1.1886109591
H        1.5866324473    1.5875301111   -1.0888804674
H        1.6789943334    0.3657274691   -3.3223213897
H       -0.6434173143    2.0948549411   -0.0995021352
H       -0.4396320423   -0.2332708929   -4.4128788572
H       -3.0867155541    1.7870057679   -5.0313885986
H       -1.9257247175    0.6243683189   -5.6902165026
H       -3.6547100369    0.2666850315   -5.7469795307
H       -4.5414494293    1.2021011779   -3.0295371440
H       -4.2699061748   -0.2896595114   -2.1326101379
H       -4.9094154901   -0.3650182988   -3.7866531722
H       -2.5969602536   -1.0128873724   -3.8731262038
21   
torsion grid (15,)
C        0.6823645127    1.3928260082   -1.6423674682
C        0.7377892127    0.7732323680   -2.9243415342
C       -0.5215973660    1.5334487071   -1.0186658923
C       -0.4346337817    0.3880857852   -3.5049304067
C       -1.7732297921    1.0584440177   -1.5927992865
C       -2.7994518920    0.5757624525   -5.1560534216
C       -4.2306646738    0.3389073784   -3.1428006637
C       -2.8411639449    0.0308622207   -3.7148149984
N       -1.6722710280    0.5755572506   -2.9318153790
O       -2.8369664410    1.0872851986   -0.9689241693
H        1.5952003976    1.7358483437   -1.1606250221
H        1.6751663731    0.5971315193   -3.4394650779
H       -0.6154047266    1.9719057729   -0.0307509736
H       -0.4306603658   -0.1042790525   -4.4681677187
H       -2.8726813372    1.6680406602   -5.1445550831
H       -1.9038152710    0.3008128929   -5.7165140164
H       -3.6566517494    0.1825375013   -5.7093800042
H       -4.3924433027    1.4141836127   -3.0421596267
H       -4.4008587466   -0.1170371441   -2.1712520300
H       -4.9629869373   -0.0557824911   -3.8559472558
H       -2.7087948418   -1.0578560286   -3.7365984985
21   
torsion grid (30,)
C        0.6088252284    1.4747698666   -1.6576475029
C        0.6767877617    1.0232251419   -3.0053537970
C       -0.5627693489    1.3549695631   -0.9687078120
C       -0.4601620265    0.5360321207   -3.5851637854
C       -1.7496060692    0.7420112452   -1.5397097368
C       -2.7452953988    0.3058945385   -5.2053497977
C       -4.1938761315    0.6229399570   -3.1834740043
C       -2.8853591982    0.0076321540   -3.7056412439
N       -1.6620690436    0.4240298985   -2.9284972212
O       -2.7520116661    0.4759183225   -0.8687454102
H        1.4862078910    1.9052619618   -1.1803193186
H        1.5921822972    1.0725449190   -3.5838122180
H       -0.6631488530    1.6654361983    0.0659516115
H       -0.4442002293    0.2112498172   -4.6145948598
H       -2.5281434055    1.3645884160   -5.3821887463
H       -1.9860159519   -0.2983211422   -5.7076313191
H       -3.6972278325    0.0724569352   -5.6884581540
H       -4.1250037007    1.7157025774   -3.1435063634
H       -4.4584070674    0.2625370953   -2.1954177479
H       -4.9879048797    0.3633992298   -3.8909220252
H       -2.9657489514   -1.0797595403   -3.5800112502
21   
torsion grid (45,)
C        0.5719573747    1.4813280664   -1.6059584590
C        0.6101703705    1.2549581312   -3.0097985098
C       -0.5528551927    1.1639899640   -0.8989666504
C       -0.5055311156    0.7506035337   -3.6187867034
C       -1.7212534608    0.5729974783   -1.5213641915
C       -2.7403273233    0.0790290204   -5.1950170022
C       -4.1095131654    0.8873707950   -3.2291816458
C       -2.9011317084    0.0495696314   -3.6758725642
N       -1.6440220393    0.4072703014   -2.9353454398
O       -2.7096101406    0.1821435417   -0.8883769333
H        1.4359172408    1.9055499231   -1.0993712693
H        1.4858492638    1.4863958906   -3.6052970929
H       -0.6277948087    1.3150430308    0.1727253675
H       -0.5195692556    0.5969638804   -4.6876644295
H       -2.5256940128    1.0857908022   -5.5692867206
H       -1.9703886135   -0.6086184123   -5.5571728580
H       -3.6878521253   -0.2406238977   -5.6365547658
H       -3.9250652224    1.9551850300   -3.3988506798
H       -4.3440543196    0.7310709120   -2.1807981281
H       -4.9720525172    0.5967495668   -3.8374894063
H       -3.1129424277   -0.9858073697   -3.3823168075
21   
torsion grid (60,)
C        0.5435264289    1.4131500579   -1.5937155781
C        0.5283038297    1.3948374016   -3.0161710943
C       -0.5339344316    0.9485891541   -0.8917597731
C       -0.5855888513    0.9134564681   -3.6482770684
C       -1.7138475112    0.4222217562   -1.5465718442
C       -2.7557665740   -0.1079204670   -5.1854734843
C       -4.0712946446    1.0064483199   -3.3211790509
C       -2.9278500241    0.0462116142   -3.6767082804
N       -1.6673283682    0.4218553060   -2.9696299714
O       -2.6989962294   -0.0342843471   -0.9525584607
H        1.4130360082    1.7987727973   -1.0661523410
H        1.3648365270    1.7556584116   -3.6034681942
H       -0.5631286227    0.9483820150    0.1927253701
H       -0.6463634329    0.8975638827   -4.7277443123
H       -2.5801425736    0.8491366334   -5.6883401478
H       -1.9480795355   -0.7998282502   -5.4442315099
H       -3.6842876695   -0.5192629343   -5.5908894303
H       -3.8486380402    2.0200406271   -3.6756429575
H       -4.2436790809    1.0294249650   -2.2470040194
H       -4.9882114855    0.6691683329   -3.8154284956
H       -3.1900305946   -0.9320418013   -3.2607871766
21   
torsion grid (75,)
C        0.5661240944    1.3515374951   -1.5966852997
C        0.4727363627    1.5116409555   -3.0078308004
C       -0.4554726347    0.7661644941   -0.9001170250
C       -0.6548106219    1.0601057565   -3.6382191365
C       -1.6621916232    0.2993160328   -1.5510327267
C       -2.7346024294   -0.2664554960   -5.1307846483
C       -4.0261374077    1.0976332828   -3.4127105691
C       -2.9340651127    0.0477215771   -3.6489738604
N       -1.6784477521    0.4564359817   -2.9645202641
O       -2.6281864596   -0.2117997251   -0.9700987148
H        1.4533474867    1.6982500873   -1.0715769555
H        1.2639377748    1.9751174292   -3.5857256790
H       -0.4206355600    0.6333907007    0.1760542871
H       -0.7778501224    1.1593966172   -4.7090955255
H       -2.5657283558    0.6307416102   -5.7357572171
H       -1.9050364770   -0.9622313457   -5.2916546397
H       -3.6463372214   -0.7384899309   -5.5078775534
H       -3.7547533776    2.0507875163   -3.8812639614
H       -4.1798521365    1.2543433601   -2.3439969289
H       -4.9700915411    0.7575190927   -3.8510190538
H       -3.2350197016   -0.8676265153   -3.1343516623
21   
torsion grid (90,)
C        0.5713486989    1.2955943095   -1.5889677693
C        0.3826902792    1.6175530175   -2.9632727331
C       -0.3787914926    0.5849756872   -0.9081881024
C       -0.7613087682    1.1853204356   -3.5760868016
C       -1.6079006805    0.1441011006   -1.5369688747
C       -2.7298915523   -0.4164424410   -5.0374255126
C       -4.0049080662    1.1726999037   -3.5019755953
C       -2.9680474911    0.0488166124   -3.5996095263
N       -1.7140395756    0.4600943988   -2.9191316283
O       -2.5203850948   -0.4613088441   -0.9607693439
H        1.4755804197    1.6197829042   -1.0786725325
H        1.1152878309    2.1854226048   -3.5249889881
H       -0.2688938960    0.3297216739    0.1405075381
H       -0.9600203656    1.3989849006   -4.6195444435
H       -2.4993633703    0.4083252223   -5.7200096792
H       -1.9195116803   -1.1500278257   -5.0890672300
H       -3.6427225408   -0.8921392922   -5.4079044964
H       -3.6678728538    2.0654391957   -4.0414005737
H       -4.1793936608    1.4389661404   -2.4565393706
H       -4.9555014011    0.8486610502   -3.9379200469
H       -3.3244713366   -0.7967357993   -3.0100634109
21   
torsion grid (105,)
C        0.5628329743    1.2849468597   -1.5861642226
C        0.2865028927    1.7334244577   -2.9099560385
C       -0.3167843439    0.4644141066   -0.9356884040
C       -0.8712958699    1.3128815150   -3.5029101825
C       -1.5561828666    0.0223112221   -1.5454375039
C       -2.7428573731   -0.5359105364   -4.9284405847
C       -3.9854717640    1.2696851163   -3.6136398198
C       -3.0145803921    0.0860883189   -3.5560197004
N       -1.7573197686    0.4838214319   -2.8751541399
O       -2.3968235897   -0.6968439952   -0.9917542964
H        1.4784629058    1.6000434618   -1.0907018530
H        0.9629020015    2.3886048385   -3.4464930807
H       -0.1376237373    0.1103294544    0.0740088662
H       -1.1395131929    1.6204637530   -4.5075322475
H       -2.3817648199    0.1957993945   -5.6592321901
H       -2.0064338157   -1.3413402629   -4.8524040052
H       -3.6720247422   -0.9581919265   -5.3230403137
H       -3.5907983685    2.0843012216   -4.2315955696
H       -4.1756210958    1.6584259473   -2.6093735390
H       -4.9395927202    0.9512886392   -4.0454937516
H       -3.4364920584   -0.6770356120   -2.9019200864
21   
torsion grid (120,)
C        0.5549547327    1.3131864225   -1.5856001635
C        0.2086271259    1.8689921113   -2.8510806381
C       -0.2698779019    0.4072625391   -0.9783120780
C       -0.9648417930    1.4705568285   -3.4279051489
C       -1.5155186826   -0.0293550106   -1.5797311307
C       -2.7530666976   -0.5974170250   -4.8107741276
C       -3.9782229312    1.3743959361   -3.7405550263
C       -3.0592729188    0.1690062407   -3.5203476275
N       -1.8047096582    0.5697863911   -2.8363892011
O       -2.2905288150   -0.8515737351   -1.0761533883
H        1.4820261109    1.6121663621   -1.1015505846
H        0.8441802183    2.5874820945   -3.3555509633
H       -0.0330504352   -0.0347676207   -0.0163057068
H       -1.2850229037    1.8561829624   -4.3897013117
H       -2.2599168366    0.0361678834   -5.5564971101
H       -2.1061833028   -1.4550621031   -4.6052878229
H       -3.6840393845   -0.9672499405   -5.2516834183
H       -3.5620523737    2.0883464951   -4.4598658841
H       -4.1595120974    1.9000024263   -2.7985703622
H       -4.9409792363    1.0338684406   -4.1340332851
H       -3.5360930888   -0.5111537636   -2.8146028083
21   
torsion grid (135,)
C        0.5612377129    1.3122782945   -1.6166520137
C        0.1462866047    1.9809504706   -2.8040948169
C       -0.2089473684    0.3197956565   -1.0760107989
C       -1.0408481588    1.6084899597   -3.3712616625
C       -1.4575462667   -0.1031454876   -1.6797747210
C       -2.7763794534   -0.6734525332   -4.7135493338
C       -3.9530273225    1.4379033442   -3.8891904077
C       -3.0899745448    0.2297025802   -3.5164573877
N       -1.8323454524    0.6309909409   -2.8382728432
O       -2.1712380177   -1.0209559706   -1.2567964945
H        1.4979307042    1.5924657152   -1.1399475741
H        0.7401373591    2.7660281196   -3.2575936151
H        0.0827086314   -0.2130726919   -0.1771416928
H       -1.4112620786    2.0798979358   -4.2744465949
H       -2.2019776413   -0.1361629876   -5.4769643245
H       -2.1992929055   -1.5451737420   -4.3935237190
H       -3.7052916683   -1.0257047082   -5.1734547843
H       -3.5352164819    2.0187386939   -4.7184412789
H       -4.0881146378    2.1037543197   -3.0315889691
H       -4.9392702158    1.0864231422   -4.2068817070
H       -3.6164375733   -0.3613334338   -2.7667849925
21   
torsion grid (150,)
C        0.5843019962    1.3012145633   -1.6286242170
C        0.0920321045    2.0882211106   -2.7081748994
C       -0.1246674895    0.2199508336   -1.1817434062
C       -1.1058208375    1.7392083977   -3.2696179354
C       -1.3808848984   -0.1778111361   -1.7841675420
C       -2.8088542361   -0.7580109538   -4.5866130576
C       -3.9002779543    1.4689506615   -4.0169337942
C       -3.1038596359    0.2735628743   -3.4919411514
N       -1.8373156876    0.6743056504   -2.8268972124
O       -2.0429759542   -1.1697116279   -1.4536042536
H        1.5304285531    1.5614842825   -1.1593432400
H        0.6355646467    2.9462574857   -3.0864203797
H        0.2251650252   -0.4046666873   -0.3665921549
H       -1.5296561801    2.3021645487   -4.0921055652
H       -2.1944446577   -0.3173569024   -5.3801737896
H       -2.2822901336   -1.6180094308   -4.1668636582
H       -3.7438690208   -1.1112003527   -5.0336032823
H       -3.4526441758    1.9192718465   -4.9091583634
H       -4.0150005414    2.2435074256   -3.2522101617
H       -4.8987593924    1.1238956301   -4.3007989299
H       -3.6775990302   -0.2176707311   -2.7046343944
21   
torsion grid (165,)
C        0.6015637865    1.2758145579   -1.6462642547
C        0.0290750968    2.1625292988   -2.6005995727
C       -0.0561005644    0.1306583970   -1.2895444993
C       -1.1853817213    1.8384720234   -3.1419385504
C       -1.3383628801   -0.2291488305   -1.8583641236
C       -2.8665266899   -0.8268380753   -4.4515818348
C       -3.8415556745    1.4764993235   -4.1493259178
C       -3.1381548521    0.3102458296   -3.4555614978
N       -1.8674485003    0.7084217302   -2.7886620243
O       -1.9730941318   -1.2543834492   -1.5791438255
H        1.5658805396    1.5105312305   -1.2011816549
H        0.5265199429    3.0762875535   -2.9045641132
H        0.3511671114   -0.5705871641   -0.5688757624
H       -1.6584609671    2.4772475632   -3.8758249901
H       -2.2041189315   -0.4805414275   -5.2531083791
H       -2.4091783181   -1.6805863787   -3.9507566146
H       -3.8079658597   -1.1554212207   -4.9039060991
H       -3.3115753369    1.8088885763   -5.0477925455
H       -3.9828486515    2.3337132877   -3.4829852617
H       -4.8313550024    1.1375728034   -4.4679499315
H       -3.7706506476   -0.0747533204   -2.6526877890
21   
torsion grid (180,)
C        0.6304659118    1.2631869629   -1.7037215031
C       -0.0362030830    2.2301595202   -2.5062598128
C        0.0307693328    0.0632569507   -1.4402892275
C       -1.2683321251    1.9184382515   -3.0130735479
C       -1.2862286960   -0.2688319993   -1.9437302971
C       -2.9290151171   -0.8728376266   -4.3567806392
C       -3.7526025508    1.4732131052   -4.2924472389
C       -3.1666153355    0.3438574379   -3.4433585955
N       -1.8961852973    0.7299757604   -2.7556497065
O       -1.8885712721   -1.3181881457   -1.6840501128
H        1.6170412115    1.4805480749   -1.3006193229
H        0.4070228983    3.1936042191   -2.7303833718
H        0.5037019763   -0.7007235194   -0.8323162875
H       -1.7988471170    2.6195136099   -3.6414994338
H       -2.2039600206   -0.6182885739   -5.1381908391
H       -2.5675836832   -1.7327420713   -3.7967873791
H       -3.8709401695   -1.1452048608   -4.8437363607
H       -3.1061162983    1.7245774974   -5.1389814763
H       -3.9580256103    2.3823941261   -3.7176629513
H       -4.7057822250    1.1275295205   -4.7014975408
H       -3.8657012897    0.0634430697   -2.6510190531
