29   
torsion grid (-165,)
C        1.4494805096   -0.5523743108    6.5373492658
C       -0.6810186663   -1.0949625711    6.9191474333
C        0.1529284907   -0.5213901233    5.9687973012
C        1.1842836386   -1.6248892642    1.2138736078
C       -0.6153666198    0.1326875726    1.3045054082
C        1.7839486490    0.7280161232    1.8543761168
C       -0.2689979608   -2.0486475390    9.2196506964
C        0.7002175159   -0.3568307281    1.9340949509
N        1.4206935664   -1.1104497970    7.7455129833
N        0.1154095089   -1.4328759073    7.9594933484
N        0.5450386323   -0.7794944915    3.3715915362
O       -1.8178269498   -0.1492930973    4.3346050287
O        0.0747702707    1.5425857532    4.2952411926
S       -0.3823134111    0.1583729056    4.4383602608
H        2.3791674203   -0.1998096139    6.1109515579
H       -1.7484809520   -1.2640681731    6.9039167190
H        2.0977327355   -2.0113327779    1.6766447842
H        0.4202766433   -2.4115347964    1.2347032752
H        1.3990433343   -1.3979823093    0.1657078366
H       -0.9635236583    1.0558435287    1.7736826844
H       -1.4056296407   -0.6175560922    1.4043608095
H       -0.4603307052    0.3328117317    0.2391001649
H        1.4756766325    1.6310952579    2.3823652017
H        2.7148958746    0.3660070655    2.3011899442
H        1.9754547977    0.9812141898    0.8063495003
H        0.2988781578   -2.9698890290    9.3669536479
H       -0.0653974033   -1.3629933371   10.0456741388
H       -1.3352662804   -2.2772327287    9.1898621514
H        0.1682617247   -1.7274040099    3.4245005026
29   
torsion grid (-150,)
C        1.3639564504   -0.4694226219    6.4500365151
C       -0.7152518334   -1.1105785524    6.9426776664
C        0.0458583860   -0.5313943393    5.9369999245
C        1.1498363267   -1.6168282639    1.1832958484
C       -0.5242134438    0.2623329778    1.2170377066
C        1.8373610469    0.6283962297    2.0667431647
C       -0.1587879250   -1.9407076545    9.2612276142
C        0.6761398507   -0.3681887999    1.9445022577
N        1.4151091939   -0.9776355814    7.6793952772
N        0.1402964090   -1.3621921910    7.9611281510
N        0.3224277058   -0.8821535177    3.3130579858
O       -1.9990403521   -0.3412453828    4.3602525900
O       -0.1931579190    1.4482157869    4.2055635643
S       -0.5815882184    0.0492875683    4.4004242709
H        2.2554256077   -0.0857751141    5.9718547258
H       -1.7710306391   -1.3391615463    6.9792016821
H        1.9773263560   -2.1034737151    1.7087687472
H        0.3364639545   -2.3424879841    1.0621901007
H        1.4939320434   -1.3340614794    0.1843588827
H       -0.8564842831    1.1737732316    1.7184245254
H       -1.3671987032   -0.4351036980    1.1763042325
H       -0.2429916907    0.5207394826    0.1906490994
H        1.5359427663    1.5197268963    2.6176202884
H        2.6809287115    0.1630471082    2.5861671731
H        2.1692821289    0.9301325354    1.0678811971
H        0.4937573423   -2.7981180186    9.4388681816
H       -0.0004460428   -1.1975866129   10.0467959418
H       -1.2001084420   -2.2657701474    9.2716983465
H       -0.1388993111   -1.7905037075    3.2551019991
29   
torsion grid (-135,)
C        1.2269015647   -0.2237513981    6.4485584703
C       -0.7290776527   -1.1703286239    6.9504233871
C       -0.0803572962   -0.4520515505    5.9565260141
C        0.9772949846   -1.6001516237    1.2327847121
C       -0.5103652462    0.4310673667    1.2087409059
C        1.7751238055    0.5197074669    2.3080944975
C       -0.0107889678   -1.9935771287    9.2270172629
C        0.5439133462   -0.3485790485    2.0137237427
N        1.3766128750   -0.7636303657    7.6567364913
N        0.1765807018   -1.3361400149    7.9437408279
N       -0.0025067760   -0.8924169250    3.3016878714
O       -2.2111869386   -0.3518541003    4.4923388974
O       -0.4333008748    1.4655000799    4.2020910825
S       -0.8036115003    0.0685161484    4.4396302241
H        2.0427657638    0.3067964221    5.9755743567
H       -1.7425656150   -1.5426673334    6.9985616939
H        1.7073668069   -2.1819930784    1.8033060880
H        0.1195427380   -2.2440827513    1.0038859824
H        1.4329291962   -1.3057083625    0.2829277441
H       -0.8174938417    1.3359688215    1.7362526551
H       -1.3981760905   -0.1859669788    1.0329222746
H       -0.0998080614    0.7215106623    0.2357341637
H        1.5030219017    1.4197466920    2.8604396668
H        2.5063710944   -0.0477687625    2.8925216988
H        2.2450274355    0.8201969539    1.3660810764
H        0.7466052555   -2.7699114859    9.3552224959
H        0.0783950868   -1.2650247393   10.0366708704
H       -1.0037267138   -2.4448799741    9.2506500819
H       -0.5941611662   -1.7073566462    3.1427668951
29   
torsion grid (-120,)
C        1.0985275712    0.0063494011    6.4065215075
C       -0.6917865502   -1.2323848836    6.8893034549
C       -0.1732022093   -0.3827171970    5.9234143948
C        0.8992792287   -1.6250236115    1.2950211592
C       -0.3766228391    0.5439367586    1.1915440470
C        1.7524776534    0.3654191061    2.5594432048
C        0.1827111166   -2.0471771523    9.1135637096
C        0.4912205060   -0.3662366509    2.0781677469
N        1.3500281074   -0.5642314252    7.5840412692
N        0.2502356487   -1.3146843842    7.8592952774
N       -0.2586804900   -0.8969840441    3.2613805256
O       -2.3710815171   -0.3686680309    4.5514488051
O       -0.6434406518    1.4899169339    4.1690347237
S       -0.9796948870    0.0886408985    4.4320349516
H        1.8176340566    0.6742703268    5.9511489975
H       -1.6423739917   -1.7443604675    6.9374414042
H        1.5064199278   -2.2898726737    1.9162048672
H        0.0193970725   -2.1802421832    0.9484202924
H        1.4807490807   -1.3421825103    0.4125307556
H       -0.6695079302    1.4487469384    1.7263955097
H       -1.2845022729    0.0200456418    0.8720500896
H        0.1794837881    0.8340546118    0.2935306266
H        1.4998024239    1.2794081592    3.0993955135
H        2.3419074358   -0.2846773501    3.2136719398
H        2.3692462324    0.6379623843    1.6973784699
H        1.0461409263   -2.7106759659    9.1969006150
H        0.1811884974   -1.3492491328    9.9545160488
H       -0.7343039179   -2.6379512919    9.1284321383
H       -0.9677601331   -1.5767749746    2.9886503582
29   
torsion grid (-105,)
C        0.8767231041    0.3295019110    6.4264704476
C       -0.6293297498   -1.2744807342    6.7861868403
C       -0.2934836717   -0.2630886235    5.8972131237
C        0.7652714497   -1.7324202452    1.4480924590
C       -0.2318296455    0.5711857202    1.2220503817
C        1.6680225220    0.1466189260    2.8436484757
C        0.3954064143   -2.0749562882    8.9497966989
C        0.4053075923   -0.4370780339    2.1942341762
N        1.2409069203   -0.2725981886    7.5586105753
N        0.3132433839   -1.2464305707    7.7575009756
N       -0.5486632623   -0.8742933947    3.2599792939
O       -2.5634224735   -0.2819608085    4.6180374479
O       -0.8461216710    1.5625732431    4.1362082167
S       -1.1766892175    0.1663025139    4.4370040353
H        1.4439404823    1.1627358002    6.0340915022
H       -1.4595950203   -1.9664320135    6.7861973280
H        1.2189061882   -2.4586779017    2.1285052038
H       -0.1231515618   -2.1893667132    0.9962151552
H        1.4726164337   -1.5157039340    0.6418104492
H       -0.4990253889    1.4954139655    1.7368856392
H       -1.1379164315    0.1516581523    0.7699112944
H        0.4680295075    0.8090077386    0.4136095982
H        1.4580652010    1.0970391328    3.3381971585
H        2.0826173901   -0.5525004488    3.5761085428
H        2.4231415576    0.3284078197    2.0729004382
H        1.3747265346   -2.5561898658    8.9934518457
H        0.2552030822   -1.4599132802    9.8421229793
H       -0.3842267443   -2.8367288583    8.9052847162
H       -1.3488510091   -1.3791759640    2.8793509123
29   
torsion grid (-90,)
C        0.5576392580    0.6909716789    6.5085393974
C       -0.4143885764   -1.3159085261    6.5192172904
C       -0.3659310199   -0.1222738695    5.8120831106
C        0.6530908230   -1.8943250197    1.6227185430
C        0.0720140459    0.5353832199    1.2768704276
C        1.6326992026   -0.1546967913    3.1422444177
C        0.7483247015   -2.1270754570    8.6072965076
C        0.3981319382   -0.5481740983    2.3199223564
N        1.0524047163    0.0459306643    7.5649140730
N        0.4491651561   -1.1731080862    7.5510421549
N       -0.7606875072   -0.8068977792    3.2292389199
O       -2.7047814191   -0.0678157978    4.5898603963
O       -0.9261373892    1.6849720867    4.0558863778
S       -1.3003086245    0.3038306138    4.3839274208
H        0.8667702168    1.7006373703    6.2736042478
H       -0.9891577131   -2.2158635887    6.3519789919
H        0.9025215606   -2.6681818370    2.3543808587
H       -0.2295556312   -2.2226430351    1.0614598437
H        1.4811622825   -1.7996888855    0.9134345873
H       -0.1433877523    1.4894965450    1.7610632961
H       -0.7999783369    0.2460023638    0.6788788942
H        0.9176073018    0.6697898689    0.5936606257
H        1.5140149234    0.8292138607    3.6009850553
H        1.8302101364   -0.8881652973    3.9289355245
H        2.5042388975   -0.1119840322    2.4821897532
H        1.8259425271   -2.2984600463    8.6501776002
H        0.4062968681   -1.7372271884    9.5691197418
H        0.2367771691   -3.0661089574    8.3912490174
H       -1.5925449103   -1.1157984277    2.7255293776
29   
torsion grid (-75,)
C        0.1631012423    0.7786628356    6.4358579734
C       -0.5027150075   -1.3489849345    6.3763011961
C       -0.6261319991   -0.1396966439    5.7057604242
C        0.4832427874   -1.9967643782    1.6520116843
C        0.1578738193    0.4901822581    1.3667337213
C        1.4304831161   -0.4104011756    3.3452403602
C        0.7655997995   -2.0476193173    8.4442839801
C        0.2637228205   -0.6624187947    2.3831281075
N        0.7465359783    0.1791034515    7.4731396044
N        0.3300051673   -1.1150104724    7.4167195569
N       -1.0214894313   -0.8423153454    3.1223914820
O       -2.9936048675   -0.2732240021    4.5099989112
O       -1.3634223733    1.6123889072    3.9807003745
S       -1.6222396955    0.2007563116    4.2980642282
H        0.3207657369    1.8294442061    6.2328920412
H       -0.9382947415   -2.3177312368    6.1758654998
H        0.5703916978   -2.8203119092    2.3667540810
H       -0.3484267156   -2.2170083836    0.9727264086
H        1.3978408917   -1.9515390188    1.0527982053
H       -0.0457532360    1.4350637934    1.8748275421
H       -0.6540763063    0.3033003179    0.6548376832
H        1.0893343108    0.5867619076    0.7984107242
H        1.3514252302    0.5611419705    3.8370206566
H        1.4927008988   -1.1865082106    4.1120863973
H        2.3621664327   -0.4155430513    2.7716389301
H        1.8565236893   -2.0551345425    8.4916471848
H        0.3642643489   -1.7464317739    9.4149965736
H        0.4031758698   -3.0455096266    8.1931816838
H       -1.8049164330   -1.1169980340    2.5314692608
29   
torsion grid (-60,)
C       -0.0280395540    0.6879146765    5.9418812861
C       -0.7804205592   -1.3682582518    6.3587966015
C       -0.8773691950   -0.3284666613    5.4438934765
C        0.4194666308   -1.5154823212    0.8683964849
C        0.4966056163    0.7294824515    1.9814086991
C        1.4859359239   -1.2872249018    3.1382873627
C        0.4937280483   -1.6480220410    8.5211211317
C        0.3593835817   -0.7797823717    2.2178532899
N        0.5587518332    0.3023934287    7.0755066398
N        0.0901449151   -0.9517146262    7.3094997873
N       -0.9832658672   -1.1163212958    2.7712224992
O       -2.9953717765   -1.1880023800    4.1961706500
O       -1.9761133488    1.0848677790    3.5737361041
S       -1.8402038223   -0.3162172607    3.9633185402
H        0.1591835724    1.6683355883    5.5244372453
H       -1.2776951318   -2.3274623754    6.3948653191
H        0.2987264313   -2.5972687324    1.0007554120
H       -0.3726053336   -1.1600895289    0.2040881635
H        1.3882060472   -1.3451387783    0.3884987142
H        0.5300692639    1.2925113153    2.9159286218
H       -0.3393335218    1.1114894748    1.3921685786
H        1.4297230480    0.9146257279    1.4405151456
H        1.4799415762   -0.7730679771    4.1018739422
H        1.3824524818   -2.3626220628    3.3242170806
H        2.4620209262   -1.1197103958    2.6711350280
H        1.5836662974   -1.6716384128    8.5805140982
H        0.0952760229   -1.1335940911    9.3991943278
H        0.1071324865   -2.6676746870    8.4887323914
H       -1.1643044347   -2.1145000399    2.8480509903
29   
torsion grid (-45,)
C       -0.1283440460    0.7602401234    5.8713454881
C       -0.6905661399   -1.3593990359    6.2730557341
C       -0.8907667066   -0.3219770787    5.3713928733
C        0.4734938819   -1.4361837642    0.8599707253
C        0.6022635557    0.6890639658    2.1837616482
C        1.3717092781   -1.4937935585    3.2080264755
C        0.6419438539   -1.5534443831    8.4091452080
C        0.3545547331   -0.8228123738    2.2662711416
N        0.5095018570    0.4131299761    6.9892243602
N        0.1571404409   -0.8810636951    7.2137015849
N       -1.0563245019   -1.0926352996    2.6693639488
O       -2.9982873516   -1.3238576800    4.1860245062
O       -2.1521251495    1.0212752567    3.5737160629
S       -1.9090372315   -0.3748853360    3.9310952169
H       -0.0384043986    1.7594649977    5.4669945284
H       -1.0999788901   -2.3594674588    6.3022432475
H        0.2683044159   -2.5131000281    0.8792261469
H       -0.2368558235   -0.9637983969    0.1766532880
H        1.4870306334   -1.2969465261    0.4710562131
H        0.5978000880    1.1604498120    3.1683434076
H       -0.1634447831    1.1748073042    1.5752846416
H        1.5836457462    0.8661031384    1.7333955452
H        1.3512751296   -1.0565997249    4.2076578350
H        1.1715135179   -2.5680685408    3.2967314671
H        2.3845523645   -1.3745525565    2.8094546670
H        1.7308678728   -1.4849725603    8.4482252661
H        0.2181426412   -1.0836696307    9.3001988040
H        0.3423677069   -2.6017512887    8.3713193875
H       -1.2763127736   -2.0871849901    2.6852734555
29   
torsion grid (-30,)
C       -0.2174060156    0.7756753219    5.8551694842
C       -0.6256706573   -1.3843378614    6.2282543036
C       -0.8992908202   -0.3522647725    5.3394874759
C        0.5182302686   -1.3496925225    0.8456797003
C        0.7043225522    0.6663753178    2.3232361914
C        1.2851915920   -1.6324010243    3.2203776703
C        0.7207060328   -1.5115338702    8.3604404228
C        0.3626367731   -0.8289062776    2.2859174911
N        0.4455439799    0.4597602699    6.9669936538
N        0.1869132778   -0.8599544577    7.1743207826
N       -1.0892826544   -1.0165938323    2.5817403559
O       -2.9436271297   -1.5084755487    4.1642905173
O       -2.3384973410    0.9314764779    3.6536732410
S       -1.9514913166   -0.4522395204    3.9278238498
H       -0.2052666807    1.7854612469    5.4677014803
H       -0.9631526614   -2.4112032512    6.2426830794
H        0.2591965059   -2.4131035598    0.7790375289
H       -0.1332416560   -0.7942311522    0.1662671004
H        1.5551144131   -1.2380291456    0.5139950319
H        0.6628134913    1.0694027567    3.3366103203
H        0.0067585668    1.2337048466    1.7025697953
H        1.7209841562    0.8185362222    1.9482382711
H        1.2823823704   -1.2390153198    4.2374896482
H        0.9843209651   -2.6859806477    3.2550972379
H        2.3142214453   -1.5910093403    2.8485160796
H        1.8026674530   -1.3700614772    8.3970621896
H        0.2694353825   -1.0812569676    9.2578870542
H        0.4923647523   -2.5771457069    8.3114321916
H       -1.3577140964   -1.9955575802    2.4830674949
29   
torsion grid (-15,)
C       -0.3324842532    0.8115010139    5.8514830437
C       -0.5500850386   -1.3787330589    6.2100592531
C       -0.8996819217   -0.3714774732    5.3192859449
C        0.5356047079   -1.2513611181    0.8109331075
C        0.8337554998    0.6028334800    2.4677782116
C        1.2039274600   -1.8078759131    3.1657148787
C        0.7716978916   -1.3959918530    8.3606730666
C        0.3766587429   -0.8508809273    2.2891293376
N        0.3406342324    0.5505287251    6.9706712843
N        0.1978708924   -0.7886135891    7.1697574457
N       -1.0961548651   -0.9456339679    2.5246093776
O       -2.8355243497   -1.7158247832    4.1536612974
O       -2.5342754798    0.7901269648    3.7302093942
S       -1.9733747453   -0.5458767273    3.9327003500
H       -0.4072620180    1.8201027611    5.4676538815
H       -0.7978637401   -2.4309407479    6.2159843475
H        0.1984830605   -2.2807753599    0.6408549734
H       -0.0499076551   -0.5875339487    0.1697413228
H        1.5878166291   -1.1924046993    0.5161950559
H        0.8059039046    0.9132275199    3.5135126258
H        0.1948490523    1.2755471952    1.8898475454
H        1.8660654176    0.7101545959    2.1208743356
H        1.1937206954   -1.5115248612    4.2151576243
H        0.8234866370   -2.8330777306    3.0906067063
H        2.2460340936   -1.8114458385    2.8296843503
H        1.8363575889   -1.1597322100    8.4123720823
H        0.2723332656   -1.0112362971    9.2532925715
H        0.6389545156   -2.4773477746    8.3049336845
H       -1.4196536592   -1.8872749084    2.3004034693
29   
torsion grid (0,)
C       -3.1369449807   -1.1409169614    2.9485040279
C       -2.6033188747    1.0112565623    3.1869619414
C       -2.1716545196   -0.2694268457    3.5089913812
C        2.2455396839   -1.3924294107    1.9923675963
C       -0.1087334987   -2.0908906763    1.4700663209
C        0.5154489761    0.3660226504    1.5817458293
C       -4.5878805765    1.8888790806    1.8987175033
C        0.7589760132   -1.0305111656    2.1693036855
N       -4.0774643465   -0.4530806097    2.3040988476
N       -3.7303552339    0.8549636872    2.4576792569
N        0.5823692972   -1.0037456404    3.6549482919
O       -0.5518660820    0.6032056642    5.2938773495
O       -1.1203800091   -1.8821621594    5.3049068884
S       -0.8196530716   -0.6434059695    4.5728315770
H       -3.1823122501   -2.2204319209    3.0072272623
H       -2.1870394112    1.9749065070    3.4441912406
H        2.8816900178   -0.6533249220    2.4861635205
H        2.4666568331   -2.3778429714    2.4188713362
H        2.4997990798   -1.4257985551    0.9285266789
H       -1.1692853139   -1.8402726702    1.5109010018
H        0.0323607100   -3.0749051619    1.9304723745
H        0.1727961955   -2.1690152784    0.4146591607
H       -0.5417846192    0.6349461252    1.5935468088
H        1.0745380974    1.1175828517    2.1462086379
H        0.8505369801    0.3890840707    0.5401512068
H       -4.7097477399    1.7225052263    0.8263904022
H       -5.5670863714    1.8606278829    2.3825311866
H       -4.1241333626    2.8615856288    2.0679545540
H        0.8743600781   -1.9036885336    4.0393552694
29   
torsion grid (15,)
C       -3.1699819311   -1.1484178510    3.0646258397
C       -2.6358411704    1.0156646269    3.1203494044
C       -2.1939880956   -0.2349390831    3.5324874011
C        2.1926732035   -1.4925596241    1.9922916185
C       -0.2076933021   -1.9111806348    1.3876909594
C        0.6460559988    0.4563243351    1.7074196726
C       -4.6589652928    1.7894177066    1.8245300529
C        0.7457073562   -1.0003192729    2.1797191238
N       -4.1283012144   -0.5138473726    2.3922458389
N       -3.7818074337    0.8024160348    2.4350930782
N        0.5399162468   -1.0637319918    3.6593774518
O       -0.4614094189    0.7899878069    5.1059303846
O       -1.0975381349   -1.6617853922    5.4584189957
S       -0.8002289955   -0.5310946289    4.5705419167
H       -3.2077399403   -2.2213118566    3.2009382342
H       -2.2172868367    1.9968752502    3.2935966111
H        2.8873299537   -0.8614216758    2.5523617258
H        2.3072686419   -2.5253541959    2.3418000791
H        2.4647750273   -1.4676468943    0.9325514472
H       -1.2381487282   -1.5565509400    1.4228126159
H       -0.1810292031   -2.9356848133    1.7758503299
H        0.0977052025   -1.9441378881    0.3365775596
H       -0.3790108771    0.8287267406    1.7545291453
H        1.2776692315    1.1004306371    2.3248766085
H        0.9768299361    0.5291327023    0.6668520112
H       -4.8159696954    1.5384664058    0.7734477768
H       -5.6218010971    1.8013700515    2.3409573586
H       -4.1912684029    2.7719797533    1.9002901809
H        0.6857711938   -2.0205136729    3.9838080650
29   
torsion grid (30,)
C       -3.2449576169   -1.2172280930    3.1473654123
C       -2.6992955828    0.9416737379    3.0372949706
C       -2.2614369264   -0.2765292368    3.5393451859
C        2.1102901589   -1.6224411476    2.0164928274
C       -0.2919048361   -1.7733025437    1.2987167912
C        0.7434394637    0.4720512095    1.8575214859
C       -4.7320665364    1.6288214209    1.7075439817
C        0.7041710444   -1.0234024451    2.2003414601
N       -4.2054840853   -0.6295353343    2.4363037694
N       -3.8523419006    0.6839210136    2.3779423276
N        0.4248700145   -1.1964450514    3.6570398824
O       -0.4307553159    0.8340387399    4.9401502871
O       -1.1449247700   -1.5496172066    5.5534428045
S       -0.8405894094   -0.5186610339    4.5560020904
H       -3.2847411440   -2.2778573593    3.3586208647
H       -2.2751259534    1.9311564570    3.1319172374
H        2.8343115399   -1.0981086196    2.6453680588
H        2.1254814320   -2.6848047486    2.2869393841
H        2.4221081448   -1.5405082604    0.9706140656
H       -1.2926024545   -1.3424807341    1.3440514859
H       -0.3591424011   -2.8292826547    1.5846061628
H        0.0452980874   -1.7307478323    0.2577633791
H       -0.2494480012    0.9245819021    1.8995506892
H        1.3930881156    1.0082793944    2.5533735909
H        1.1249368330    0.6027744827    0.8403157029
H       -4.9234214379    1.2881168116    0.6880093490
H       -5.6794077495    1.7045689586    2.2470222054
H       -4.2471165042    2.6056464900    1.6818481169
H        0.4446984095   -2.1817833900    3.9194197096
29   
torsion grid (45,)
C       -3.2713583630   -1.2284324062    3.2744242157
C       -2.7348500148    0.9189742488    3.0085649702
C       -2.2896848610   -0.2588187014    3.5926831843
C        2.0560531554   -1.7146112869    2.0365045953
C       -0.3236597442   -1.5955802607    1.2320161796
C        0.8840012007    0.5006530921    1.9716970153
C       -4.7867339535    1.5064778184    1.6591752594
C        0.7030407512   -1.0035753891    2.2146849704
N       -4.2417970630   -0.6942950983    2.5344605803
N       -3.8951680450    0.6124549490    2.3814789590
N        0.3365900906   -1.2550006422    3.6390117708
O       -0.3391457526    0.9173342010    4.7856809308
O       -1.1028608857   -1.3737150415    5.6487772605
S       -0.8204798478   -0.4448087805    4.5515074410
H       -3.3048988215   -2.2725690579    3.5570352623
H       -2.3109605954    1.9129925846    3.0234860088
H        2.7985072215   -1.2995828826    2.7229742504
H        1.9668663765   -2.7891559976    2.2348576049
H        2.4146368178   -1.5941333076    1.0094431047
H       -1.2875781306   -1.0880358975    1.2942462963
H       -0.4858305874   -2.6612462285    1.4302358409
H        0.0437962823   -1.4991945873    0.2049782780
H       -0.0648677565    1.0392727507    2.0186336068
H        1.5551544855    0.9367669204    2.7145606449
H        1.3064404833    0.6524427001    0.9737333754
H       -4.9883050720    1.0973077710    0.6671291227
H       -5.7282465841    1.6153803056    2.2032190690
H       -4.3064254909    2.4811350834    1.5620273999
H        0.2538935455   -2.2469070210    3.8559700267
29   
torsion grid (60,)
C       -3.2995887516   -1.2413247822    3.4002574986
C       -2.8122365433    0.8920621340    2.9768534815
C       -2.3276043337   -0.2364293399    3.6226739723
C        2.0025850637   -1.8495597957    2.0403836360
C       -0.2902238959   -1.3456116139    1.1308504051
C        1.1542859022    0.5098333512    2.0532465195
C       -4.9215550725    1.3573060708    1.6675946332
C        0.7546094972   -0.9642327492    2.1967306327
N       -4.3061789373   -0.7713346923    2.6642963544
N       -3.9896993590    0.5271194887    2.4144388372
N        0.2607862641   -1.2518901754    3.5736015725
O       -0.2860010869    1.0170198999    4.5953834978
O       -1.0278628311   -1.1872692425    5.6768544884
S       -0.7993224321   -0.3488042330    4.4985029072
H       -3.3052163428   -2.2649667118    3.7516444906
H       -2.4021316806    1.8893985212    2.9036886648
H        2.7541242588   -1.5869226610    2.7896508945
H        1.7533000109   -2.9106885153    2.1591413073
H        2.4352726102   -1.7192271771    1.0436812021
H       -1.1839818696   -0.7221094754    1.2037063438
H       -0.5976958866   -2.3916422976    1.2402187173
H        0.1303676267   -1.2213283124    0.1274191917
H        0.2893986327    1.1752447503    2.0869953521
H        1.8361019221    0.8101816861    2.8514182966
H        1.6513652494    0.6455935403    1.0877104173
H       -5.1450229079    0.8842371308    0.7091422093
H       -5.8480387290    1.4819718194    2.2336181801
H       -4.4650453680    2.3331491181    1.4958889959
H        0.1138534120   -2.2401042545    3.7661152827
29   
torsion grid (75,)
C       -2.9552829688   -1.4969264419    3.0654896977
C       -3.0459619175    0.7172036257    2.8161645532
C       -2.2468001364   -0.2986052937    3.3192926615
C        1.5258971744   -2.1273462816    1.5329534736
C       -0.1564054372   -0.3539946121    0.9792151124
C        2.0177120639    0.2911489257    2.0732567409
C       -5.3003301445    0.7319686743    1.6808274422
C        0.9213675031   -0.7870722921    1.9802999534
N       -4.1008273175   -1.2430024743    2.4351605398
N       -4.1363843298    0.1103082409    2.2920504412
N        0.3395655496   -1.0592207086    3.3275687715
O       -0.4045285598    1.3644045209    3.9818038998
O       -0.7711090011   -0.6457385949    5.5014037808
S       -0.7208150626   -0.0619191090    4.1581226019
H       -2.6673274176   -2.5123641109    3.3036008112
H       -2.8920900612    1.7868002043    2.8001430813
H        2.2853614452   -2.4749897944    2.2428012237
H        0.7504775702   -2.8948811701    1.4558470366
H        2.0097579008   -2.0153315786    0.5577468862
H       -0.5729903615    0.6238130992    1.2302274030
H       -0.9705444535   -1.0805567529    0.9244049487
H        0.3029074975   -0.2748865842   -0.0107093233
H        1.5993023787    1.2332618288    2.4345520040
H        2.8069629602   -0.0202001421    2.7668486939
H        2.4766892091    0.4593426909    1.0929654564
H       -5.5091132321    0.2476190347    0.7250523245
H       -6.1695156016    0.6288780843    2.3356879172
H       -5.0908792170    1.7899924931    1.5165656309
H        0.9937936769   -1.4506838497    4.0027491968
29   
torsion grid (90,)
C       -2.9661405513   -1.4863753244    3.1492294566
C       -3.0703318481    0.7117501842    2.7857386112
C       -2.2450506952   -0.2781341831    3.2988424786
C        1.5770066028   -2.1638243553    1.4569274848
C        0.0319181113   -0.2712658345    0.8850243741
C        2.1710630201    0.1867536954    2.1532755643
C       -5.3847392141    0.6723650331    1.7795776083
C        1.0207153957   -0.8104620791    1.9278485489
N       -4.1483741281   -1.2620010595    2.5783568064
N       -4.1923006991    0.0813232266    2.3653235118
N        0.3008643838   -1.1193603159    3.2011494389
O       -0.3158544860    1.3907203721    3.7043353510
O       -0.6552435926   -0.4775068450    5.4042080728
S       -0.6640692857   -0.0028123392    4.0169190642
H       -2.6636772080   -2.4888227075    3.4213021861
H       -2.9169075818    1.7780774514    2.6988749849
H        2.2578372348   -2.5923798715    2.2016601091
H        0.7659022673   -2.8763939713    1.2821483729
H        2.1401718303   -2.0355480952    0.5274009587
H       -0.3441025556    0.7164415314    1.1613126545
H       -0.8168400163   -0.9498181199    0.7623417413
H        0.5432630005   -0.1775225100   -0.0777416467
H        1.7912482700    1.1440167996    2.5147828958
H        2.8814617084   -0.2037577207    2.8911187023
H        2.7163707562    0.3535770944    1.2180532778
H       -5.6182381686    0.1672979325    0.8400810106
H       -6.2296858871    0.5689291402    2.4650826886
H       -5.1974225984    1.7301169276    1.5890402609
H        0.9055353899   -1.5440529854    3.9044899177
29   
torsion grid (105,)
C       -3.1298463817   -1.4330512418    3.4811101598
C       -3.1024443995    0.6544637507    2.6970001842
C       -2.3187671748   -0.2796443288    3.3579540275
C        1.6176537955   -2.1272882174    1.3650215517
C        0.2418361522   -0.1053682471    0.8036961944
C        2.2701666131    0.1170975437    2.3085963477
C       -5.4733856470    0.6078846205    1.8290746614
C        1.0933222841   -0.7803078734    1.8887672902
N       -4.3258496344   -1.2281728865    2.9325718316
N       -4.2892978937    0.0467366937    2.4592725194
N        0.2192598172   -1.1452104603    3.0472465963
O       -0.3297732075    1.3685169366    3.5528716752
O       -0.5813082727   -0.4692452171    5.3148854882
S       -0.6757658609   -0.0090982659    3.9251605920
H       -2.8870684115   -2.3830407428    3.9384555066
H       -2.8839054628    1.6709046769    2.4018045353
H        2.2011854070   -2.6505393061    2.1317330439
H        0.7897030157   -2.7739050143    1.0608961265
H        2.2726945984   -1.9648062299    0.5036280549
H       -0.1084926769    0.8772518428    1.1257681813
H       -0.6240094672   -0.7266523111    0.5551886621
H        0.8430833188    0.0287264165   -0.1006899313
H        1.9150302191    1.0753289806    2.6911880781
H        2.8669023173   -0.3686588339    3.0891261917
H        2.9261097892    0.3029516033    1.4511892476
H       -5.8050077060   -0.0516296945    1.0244694938
H       -6.2759683151    0.7131402141    2.5635934744
H       -5.2243392265    1.5876055748    1.4186866062
H        0.7223956283   -1.6943090293    3.7445521984
29   
torsion grid (120,)
C       -3.2767252241   -1.2654626085    3.8945820464
C       -3.1259389185    0.5407834044    2.5952215200
C       -2.3845077719   -0.2613104450    3.4502747570
C        1.6124283972   -2.0929177986    1.2541913251
C        0.4653311018    0.0794499126    0.7487783237
C        2.3270264404   -0.0064635982    2.4703128770
C       -5.5396824443    0.4964652186    1.8552498347
C        1.1365987413   -0.7567189158    1.8479357180
N       -4.4823006354   -1.0973860897    3.3527247438
N       -4.3691543933    0.0039408703    2.5634999061
N        0.1110658033   -1.1514514151    2.8660040521
O       -0.3313278319    1.3314217339    3.4719898296
O       -0.5091752879   -0.5286681150    5.2319353003
S       -0.6889171803   -0.0369747856    3.8611566174
H       -3.0870415780   -2.0775081428    4.5839701873
H       -2.8490205751    1.4298896416    2.0466209818
H        2.0855991569   -2.7211061925    2.0183282917
H        0.7742778636   -2.6464736369    0.8212269944
H        2.3539206540   -1.9094488814    0.4708915270
H        0.1369502172    1.0469538614    1.1322009224
H       -0.3989052748   -0.4543802393    0.3411358579
H        1.1771789110    0.2579222269   -0.0632112939
H        2.0129178638    0.9513741140    2.8881196863
H        2.7831924876   -0.6009294794    3.2698589174
H        3.0927017496    0.1790658149    1.7092701798
H       -5.9666797541   -0.3086552750    1.2537692233
H       -6.2885191447    0.8505935180    2.5683139087
H       -5.2387988564    1.3184704260    1.2040588963
H        0.4690183689   -1.8709148551    3.4941333309
29   
torsion grid (135,)
C       -3.3091750965   -1.2319700893    4.1563353908
C       -3.2105934622    0.3722177925    2.6102371058
C       -2.4334201990   -0.3119392779    3.5340011574
C        1.6689927888   -2.0394103232    1.2702104253
C        0.7330188395    0.2404853257    0.8091048538
C        2.3448429222   -0.1083240974    2.7374039038
C       -5.6567082058    0.2550103007    1.9976054294
C        1.2017684891   -0.7215601762    1.9098956343
N       -4.5388790503   -1.1266637285    3.6526783791
N       -4.4563369014   -0.1482139395    2.7126936687
N        0.0264586219   -1.1221117462    2.7541085457
O       -0.3952712974    1.3159215718    3.4475372770
O       -0.4617726461   -0.5553728664    5.1997832782
S       -0.7207791690   -0.0579218057    3.8432059944
H       -3.0894158878   -1.9392635434    4.9450849437
H       -2.9577593305    1.1736431665    1.9304665206
H        2.0129408128   -2.7511650296    2.0302738455
H        0.8593004921   -2.5040071161    0.6997064459
H        2.5066357694   -1.8473385926    0.5933598682
H        0.4007027696    1.1904811601    1.2293510766
H       -0.0914815381   -0.2058533657    0.2441075936
H        1.5588586072    0.4381812793    0.1181357205
H        2.0428858228    0.8410189215    3.1835092901
H        2.6496181506   -0.7871432752    3.5412022206
H        3.2149624237    0.0727083141    2.0972171682
H       -6.1133227374   -0.6200082626    1.5305685292
H       -6.3704720274    0.7086206096    2.6898853897
H       -5.3837090370    0.9789565325    1.2284724130
H        0.2314245676   -1.9677607179    3.2863271307
29   
torsion grid (150,)
C       -3.3375914915   -0.9940866870    4.2701631547
C       -3.2979746101    0.3123896086    2.4619132729
C       -2.4831804334   -0.2165447333    3.4538478962
C        1.6130557992   -1.9806158828    1.1373968939
C        0.9616898092    0.4077864677    0.7320679434
C        2.2971474002   -0.2155381516    2.7958491032
C       -5.7720949371    0.1386180591    1.9950689199
C        1.2037121041   -0.6596302347    1.8084784034
N       -4.5896998325   -0.9529276919    3.8141408245
N       -4.5423052537   -0.1545894024    2.7142312641
N       -0.1011395499   -0.9796291080    2.4860153790
O       -0.4453644720    1.4306904779    3.2523649845
O       -0.4177743139   -0.4322422402    5.0008636717
S       -0.7586093987    0.0574454317    3.6588539468
H       -3.0831083853   -1.5578452511    5.1578725824
H       -3.0712452409    0.9731575619    1.6370833165
H        1.8148977039   -2.7600074759    1.8820008738
H        0.8268949042   -2.3358011902    0.4640809981
H        2.5270206378   -1.8335561361    0.5547449329
H        0.6446044802    1.3512578094    1.1773385920
H        0.1897810924    0.0704180013    0.0331251832
H        1.8858763136    0.5802918734    0.1706981335
H        2.0473862637    0.7410049550    3.2597252022
H        2.4323867601   -0.9574356769    3.5894383133
H        3.2498586106   -0.0999930247    2.2682055936
H       -6.2641696559   -0.7966811581    1.7209484919
H       -6.4425297051    0.7282891697    2.6253174029
H       -5.5290030663    0.7020154485    1.0930521343
H       -0.0653695228   -1.9049079767    2.9155304812
29   
torsion grid (165,)
C       -3.2726665991   -0.9534051135    4.3033747796
C       -3.3782646597    0.2686830740    2.4400185019
C       -2.4924076879   -0.1821550449    3.4100506792
C        1.5743486036   -1.9869508104    1.1034763745
C        1.2201059840    0.4737599278    0.7530980526
C        2.2560570361   -0.3668513871    2.9050702475
C       -5.8629810595   -0.0233218993    2.1102797215
C        1.2332917255   -0.6565026149    1.7926704019
N       -4.5464889291   -0.9831020381    3.9119394874
N       -4.5874068209   -0.2340089042    2.7770221919
N       -0.1675706732   -0.8521043004    2.3104598139
O       -0.5241537071    1.5511759866    3.0679181249
O       -0.3462451196   -0.2538822393    4.8549298073
S       -0.7757502582    0.1790763951    3.5181110111
H       -2.9507648649   -1.4649279912    5.2007986044
H       -3.2192857282    0.8982803728    1.5759020743
H        1.6141374695   -2.8111027159    1.8259757834
H        0.8326504256   -2.2296208179    0.3360830578
H        2.5552561279   -1.9172296765    0.6246292756
H        0.9590958483    1.4275820640    1.2130039514
H        0.4903503652    0.2555445828   -0.0326821047
H        2.2101454735    0.5641493140    0.2939256534
H        2.0628030020    0.5952865718    3.3851398579
H        2.2315276826   -1.1413844658    3.6774460440
H        3.2639985786   -0.3348633924    2.4780870830
H       -6.3258630574   -0.9890491317    1.8978362301
H       -6.5267179845    0.5623388890    2.7511425828
H       -5.6897396090    0.5129957323    1.1762552906
H       -0.2815757926   -1.8018217398    2.6691489577
29   
torsion grid (180,)
C        1.5272984044   -0.6578145329    6.6187377846
C       -0.6653671390   -0.9820337076    6.8817886555
C        0.2682719164   -0.4417512831    6.0072375837
C        1.2596903726   -1.6077679608    1.3088072023
C       -0.7270919890   -0.0646621395    1.3985366136
C        1.6166167066    0.8522506084    1.6627071903
C       -0.4630430527   -2.1302174537    9.1206013536
C        0.6842567077   -0.3341277335    1.9482609391
N        1.3833496669   -1.2928925001    7.7798694727
N        0.0420859019   -1.4792544750    7.9220435557
N        0.7045560506   -0.6243487876    3.4259754561
O       -1.5869039020    0.3077927313    4.3690360505
O        0.5238173130    1.7061693952    4.4429773401
S       -0.1234952474    0.3948672058    4.5101418576
H        2.5078284881   -0.3810104892    6.2547901682
H       -1.7434096592   -1.0249974829    6.8162316812
H        2.2494243899   -1.8338556111    1.7165059485
H        0.6050405267   -2.4710494106    1.4806303669
H        1.3525123638   -1.4722726700    0.2273426277
H       -1.1458985340    0.8624271410    1.7954286898
H       -1.4151497310   -0.8764779643    1.6545268272
H       -0.6828902232    0.0193300417    0.3074863154
H        1.2452005316    1.7714524413    2.1178489008
H        2.6155283126    0.6551782350    2.0623196788
H        1.6944091182    1.0031315657    0.5810385550
H       -0.0017740212   -3.1145603553    9.2256191138
H       -0.2273266653   -1.5253541908    9.9994907850
H       -1.5447919339   -2.2405655457    9.0330476508
H        0.3306687611   -1.5613850637    3.5918627347
