14   
torsion grid (-165,)
C        0.2910802221   -0.4968040701    0.9187468742
C        1.5717406672   -0.5733816641    2.9649651063
C       -0.6467733943   -1.3333181868    1.5324371570
C        1.4018363113   -0.0961531979    1.6650843204
C        0.5598693516   -1.3958514917    3.4540382889
N       -0.5399333886   -1.7544330878    2.7996756149
O        2.2963933628   -1.9713808533    5.3804219551
O       -0.1756779809   -1.3424705712    5.9069327584
S        0.8941434095   -2.3155137525    5.0074289743
Cl       2.5954736065    0.9617898574    0.9565361596
H        0.1609158364   -0.1766872118   -0.1095795826
H        2.4493508978   -0.3594689575    3.5667916806
H       -1.5306049180   -1.6560969969    0.9862349712
H       -0.4361043218   -1.8494054797    6.6991036982
14   
torsion grid (-150,)
C        0.3360950519   -0.5674941496    0.8897112487
C        1.5404104077   -0.4884143623    2.9817217620
C       -0.6556870299   -1.3038064606    1.5485882012
C        1.4206484236   -0.1125946439    1.6423932651
C        0.4888158913   -1.2333809538    3.5140431746
N       -0.6206986794   -1.5692605671    2.8591130638
O        2.3084072306   -1.9399029638    5.3256491768
O       -0.1608404446   -1.4689086867    6.0103082727
S        0.9043937625   -2.2847303552    4.9638186866
Cl       2.6659368489    0.8498118744    0.8878079305
H        0.2653736716   -0.3642694997   -0.1735289234
H        2.4260806951   -0.2799817090    3.5736112297
H       -1.5352110775   -1.6446733521    1.0062384624
H       -0.3692904654   -2.0739757359    6.7470174455
14   
torsion grid (-135,)
C        0.3804744088   -0.6311801348    0.8840150741
C        1.5189872239   -0.3735438119    2.9992667488
C       -0.6624429189   -1.2541233458    1.5853734523
C        1.4414351924   -0.1127002518    1.6274870310
C        0.4367827376   -1.0437240107    3.5743015996
N       -0.6846846075   -1.3453176558    2.9164645491
O        2.3088227988   -1.8348590067    5.3132660279
O       -0.1745478595   -1.5927024825    6.0604405849
S        0.9223483643   -2.2068751316    4.9175264759
Cl       2.7301483706    0.7511878846    0.8276527956
H        0.3614072913   -0.5567755858   -0.1979818796
H        2.4123419212   -0.1619495788    3.5783814395
H       -1.5446853869   -1.6080561254    1.0555880104
H       -0.3340867186   -2.2924272431    6.7217283788
14   
torsion grid (-120,)
C        0.4092658983   -0.7104183366    0.8961282156
C        1.4969145386   -0.2682155543    3.0075589663
C       -0.6754626786   -1.2177527368    1.6348165852
C        1.4485429737   -0.1221653270    1.6144175869
C        0.3996283219   -0.8784476271    3.6249743075
N       -0.7365915314   -1.1360062773    2.9621472059
O        2.2969707268   -1.8143988302    5.2855304585
O       -0.1904682140   -1.7475496671    6.0488504557
S        0.9222872814   -2.1643469637    4.8378577038
Cl       2.7662347373    0.6550311148    0.7742341713
H        0.4282038648   -0.7639724356   -0.1869015544
H        2.3988209619   -0.0512295611    3.5718191234
H       -1.5658971855   -1.5791880374    1.1234121031
H       -0.3136825820   -2.5288556356    6.6207223983
14   
torsion grid (-105,)
C        0.4316334623   -0.7894930755    0.9314457355
C        1.4708147143   -0.1558481338    3.0207237153
C       -0.6957687481   -1.1738132267    1.6895144055
C        1.4539452697   -0.1370013764    1.6157628189
C        0.3538321619   -0.7000356839    3.6752769936
N       -0.7811831835   -0.9257070203    2.9903220506
O        2.2776177214   -1.7528264212    5.2701742280
O       -0.2136800909   -1.8959744977    5.9912826216
S        0.9263343440   -2.0888780541    4.7531846985
Cl       2.8052049453    0.5381054782    0.7412718233
H        0.4880245968   -0.9723813129   -0.1359100859
H        2.3792398599    0.0725576623    3.5701884639
H       -1.5947821754   -1.5361963737    1.1935103773
H       -0.2880545191   -2.7458892971    6.4657778822
14   
torsion grid (105,)
C        0.0739020264   -0.2579415364    1.5210192538
C        1.9439703945   -1.0751410977    2.8201571278
C       -0.5891369895   -1.4655338749    1.8326444636
C        1.4091409571   -0.1550406041    1.9014266158
C        1.1262986590   -2.1524153299    3.1769457287
N        0.0402358940   -2.4548053813    2.4533671677
O        2.1623614114   -1.6153924477    5.6024927645
O       -0.1687617935   -0.8450949263    4.9176316234
S        0.8955329441   -2.1618302498    5.0557412344
Cl       2.3568842342    1.2254119736    1.4052000580
H       -0.4271798646    0.5448050363    0.9916648321
H        2.8476349614   -0.8511910107    3.3786235883
H       -1.5719083741   -1.6807459232    1.4165121364
H       -1.0000309333   -1.0973756424    5.3617716335
14   
torsion grid (120,)
C        0.0979910727   -0.2803113335    1.3683011185
C        1.8846307323   -0.9880268816    2.8337730215
C       -0.5915524877   -1.4494625778    1.7406660506
C        1.4015311084   -0.1292766697    1.8363954516
C        1.0530124043   -2.0475447366    3.1985900185
N       -0.0329860709   -2.3889093404    2.4993530747
O        2.1943121260   -1.7147977571    5.6013222721
O       -0.1923913075   -0.9209661693    5.0398468254
S        0.9070466284   -2.2217408625    5.0537938940
Cl       2.3709157648    1.2241627767    1.3090399650
H       -0.3628025464    0.4659312842    0.7303934480
H        2.7742850520   -0.7568597541    3.4114047618
H       -1.5603995794   -1.6801950551    1.3018328571
H       -0.8399583248   -1.0856966061    5.7508317255
14   
torsion grid (135,)
C        0.1587427332   -0.2871868960    1.2486023764
C        1.8234409130   -0.9082804104    2.8859064702
C       -0.5821382557   -1.4082606656    1.6530141322
C        1.4165366691   -0.0971977831    1.8212932367
C        0.9620481912   -1.9482530363    3.2329462775
N       -0.1234347226   -2.2900355473    2.5422088140
O        2.2179710146   -1.8075959714    5.5880551221
O       -0.2192319430   -1.0183452379    5.2132675215
S        0.9095754605   -2.2861685266    5.0594031090
Cl       2.4255906506    1.2279986448    1.2970329764
H       -0.2334348106    0.4045923428    0.5108552490
H        2.6958266881   -0.6826768986    3.4910564838
H       -1.5300027461   -1.6422426348    1.1727321812
H       -0.7259564030   -1.1843440543    6.0306801666
14   
torsion grid (150,)
C        0.1635225581   -0.3489143540    1.1341527918
C        1.7652818821   -0.8163789239    2.8801875727
C       -0.6057589907   -1.4109337831    1.6260902096
C        1.3945756666   -0.0973515514    1.7416967819
C        0.8828412743   -1.8118270131    3.2907950041
N       -0.2111652926   -2.1925452720    2.6369333022
O        2.2790256238   -1.8472294818    5.5593602232
O       -0.1922690200   -1.0686834159    5.4171021962
S        0.9424930136   -2.2930296796    5.0702544539
Cl       2.4291293909    1.1700056485    1.1324230279
H       -0.1862663935    0.2529951477    0.3022635516
H        2.6446805359   -0.5804487040    3.4713601694
H       -1.5436618841   -1.6761917765    1.1425640107
H       -0.6283364211   -1.3105946453    6.2560306628
14   
torsion grid (165,)
C        0.2008668108   -0.3860816340    1.0452506076
C        1.7014869288   -0.7240677060    2.9075745731
C       -0.6164334688   -1.3843789086    1.5859441328
C        1.3919561812   -0.0822041078    1.7079018213
C        0.7828030532   -1.6729517250    3.3461546663
N       -0.3121678334   -2.0607808768    2.7013250616
O        2.3122982019   -1.8910156681    5.5088829775
O       -0.1749209400   -1.1425946236    5.6086343052
S        0.9489076256   -2.3030561431    5.0648787278
Cl       2.4696822937    1.1278499790    1.0591388159
H       -0.0820080899    0.1298621619    0.1338687954
H        2.5793108993   -0.4900428046    3.5017469218
H       -1.5350320145   -1.6716700261    1.0786663969
H       -0.5460499839   -1.4716906507    6.4491031061
14   
torsion grid (180,)
C        0.2386468251   -0.4289150790    0.9744279851
C        1.6390599514   -0.6310022042    2.9318795554
C       -0.6278877264   -1.3584286244    1.5578080663
C        1.3895623370   -0.0693709042    1.6796873783
C        0.6829304909   -1.5276655079    3.3996898473
N       -0.4137513155   -1.9145472049    2.7582296408
O        2.3403881983   -1.9198143703    5.4372018655
O       -0.1459757932   -1.2307120168    5.7768160093
S        0.9540960177   -2.3033143286    5.0413825717
Cl       2.5122048524    1.0780655691    0.9944982691
H        0.0240649263   -0.0071163010   -0.0017505553
H        2.5173411152   -0.4003296881    3.5265673280
H       -1.5277251515   -1.6702197947    1.0317663732
H       -0.4496876658   -1.6477719599    6.6051834323
