
  -OEChem-12122420533D

 13 13  0     0  0  0  0  0  0999 V2000
    0.1411   -0.0099   -2.0175 C   0  0  0  0  0  0  0  0  0  0  0  0
    0.2715   -0.5288   -0.6199 C   0  0  0  0  0  0  0  0  0  0  0  0
   -0.4485    0.3999    0.3581 C   0  0  0  0  0  0  0  0  0  0  0  0
    0.7934    1.0972   -2.4793 N   0  0  0  0  0  0  0  0  0  0  0  0
   -0.6469   -0.5496   -2.9507 N   0  0  0  0  0  0  0  0  0  0  0  0
    0.4208    1.2634   -3.7275 N   0  0  0  0  0  0  0  0  0  0  0  0
   -0.4320    0.2736   -3.9768 N   0  0  0  0  0  0  0  0  0  0  0  0
   -0.2679   -0.2648    2.2134 Br  0  0  0  0  0  0  0  0  0  0  0  0
    1.3300   -0.5903   -0.3548 H   0  0  0  0  0  0  0  0  0  0  0  0
   -0.1526   -1.5334   -0.5713 H   0  0  0  0  0  0  0  0  0  0  0  0
   -0.0228    1.4019    0.3547 H   0  0  0  0  0  0  0  0  0  0  0  0
   -1.5190    0.4486    0.1627 H   0  0  0  0  0  0  0  0  0  0  0  0
   -0.8733    0.1533   -4.8824 H   0  0  0  0  0  0  0  0  0  0  0  0
  1  2  1  0  0  0  0
  1  4  1  0  0  0  0
  1  5  2  0  0  0  0
  2  3  1  0  0  0  0
  2  9  1  0  0  0  0
  2 10  1  0  0  0  0
  3  8  1  0  0  0  0
  3 11  1  0  0  0  0
  3 12  1  0  0  0  0
  4  6  2  0  0  0  0
  5  7  1  0  0  0  0
  6  7  1  0  0  0  0
  7 13  1  0  0  0  0
M  END
$$$$
