
  -OEChem-12122420533D

 30 31  0     1  0  0  0  0  0999 V2000
   -1.9819   -1.9740    0.1143 C   0  0  0  0  0  0  0  0  0  0  0  0
   -2.6260   -3.1273   -0.2578 C   0  0  0  0  0  0  0  0  0  0  0  0
   -1.1645   -1.3541   -0.8571 C   0  0  0  0  0  0  0  0  0  0  0  0
   -2.4209   -3.6022   -1.5823 C   0  0  0  0  0  0  0  0  0  0  0  0
   -0.8555    1.0246    0.2618 C   0  0  0  0  0  0  0  0  0  0  0  0
    0.3289    0.1972    0.6860 C   0  0  1  0  0  0  0  0  0  0  0  0
   -0.3743   -0.1007   -0.6286 C   0  0  1  0  0  0  0  0  0  0  0  0
    2.8210   -0.2873    0.5195 C   0  0  0  0  0  0  0  0  0  0  0  0
   -2.8596   -5.2260   -3.2726 C   0  0  0  0  0  0  0  0  0  0  0  0
    1.7317    0.7765    0.7146 C   0  0  0  0  0  0  0  0  0  0  0  0
   -1.0271   -1.8592   -2.0766 N   0  0  0  0  0  0  0  0  0  0  0  0
   -1.6411   -2.9784   -2.4653 N   0  0  0  0  0  0  0  0  0  0  0  0
    0.3203    0.2465   -1.9080 N   0  3  0  0  0  0  0  0  0  0  0  0
   -3.0514   -4.7229   -1.9257 O   0  0  0  0  0  0  0  0  0  0  0  0
   -2.1014   -1.5633    1.1123 H   0  0  0  0  0  0  0  0  0  0  0  0
   -3.2768   -3.6799    0.4121 H   0  0  0  0  0  0  0  0  0  0  0  0
   -1.8175    0.8899    0.7461 H   0  0  0  0  0  0  0  0  0  0  0  0
   -0.6601    2.0430   -0.0665 H   0  0  0  0  0  0  0  0  0  0  0  0
    0.1445   -0.5584    1.4467 H   0  0  0  0  0  0  0  0  0  0  0  0
    2.7658   -1.0517    1.3003 H   0  0  0  0  0  0  0  0  0  0  0  0
    3.8168    0.1614    0.5606 H   0  0  0  0  0  0  0  0  0  0  0  0
    2.7319   -0.8096   -0.4423 H   0  0  0  0  0  0  0  0  0  0  0  0
   -3.4615   -6.1316   -3.3180 H   0  0  0  0  0  0  0  0  0  0  0  0
   -1.8049   -5.4494   -3.4445 H   0  0  0  0  0  0  0  0  0  0  0  0
   -3.2053   -4.4907   -4.0019 H   0  0  0  0  0  0  0  0  0  0  0  0
    1.8299    1.5774   -0.0311 H   0  0  0  0  0  0  0  0  0  0  0  0
    1.8693    1.2720    1.6812 H   0  0  0  0  0  0  0  0  0  0  0  0
    1.3406    0.2702   -1.8176 H   0  0  0  0  0  0  0  0  0  0  0  0
    0.0003    1.1297   -2.3156 H   0  0  0  0  0  0  0  0  0  0  0  0
    0.0309   -0.5665   -2.5459 H   0  0  0  0  0  0  0  0  0  0  0  0
  1  2  1  0  0  0  0
  1  3  2  0  0  0  0
  1 15  1  0  0  0  0
  2  4  2  0  0  0  0
  2 16  1  0  0  0  0
  3  7  1  0  0  0  0
  3 11  1  0  0  0  0
  4 12  1  0  0  0  0
  4 14  1  0  0  0  0
  5  6  1  0  0  0  0
  5  7  1  0  0  0  0
  5 17  1  0  0  0  0
  5 18  1  0  0  0  0
  6  7  1  0  0  0  0
  6 10  1  0  0  0  0
  6 19  1  0  0  0  0
  7 13  1  0  0  0  0
  8 10  1  0  0  0  0
  8 20  1  0  0  0  0
  8 21  1  0  0  0  0
  8 22  1  0  0  0  0
  9 14  1  0  0  0  0
  9 23  1  0  0  0  0
  9 24  1  0  0  0  0
  9 25  1  0  0  0  0
 10 26  1  0  0  0  0
 10 27  1  0  0  0  0
 11 12  2  0  0  0  0
 13 28  1  0  0  0  0
 13 29  1  0  0  0  0
 13 30  1  0  0  0  0
M  CHG  1  13   1
M  END
$$$$
