
  -OEChem-12122420533D

 23 23  0     0  0  0  0  0  0999 V2000
    1.8250   -0.3443    0.8457 C   0  0  0  0  0  0  0  0  0  0  0  0
    0.7914   -0.2800    1.7063 C   0  0  0  0  0  0  0  0  0  0  0  0
    1.2122    2.2533    2.3392 C   0  0  0  0  0  0  0  0  0  0  0  0
   -0.2747    2.0366    2.2727 C   0  0  0  0  0  0  0  0  0  0  0  0
    0.6296    0.8773    2.6609 C   0  0  0  0  0  0  0  0  0  0  0  0
   -0.2642   -1.3553    1.7781 C   0  0  0  0  0  0  0  0  0  0  0  0
    0.5531    0.4863    4.1167 C   0  0  0  0  0  0  0  0  0  0  0  0
    2.8555   -0.1481    3.9103 N   0  3  0  0  0  0  0  0  0  0  0  0
    1.6176   -0.4642    4.5170 O   0  0  0  0  0  0  0  0  0  0  0  0
    1.9282   -1.1739    0.1516 H   0  0  0  0  0  0  0  0  0  0  0  0
    2.5517    0.4595    0.7424 H   0  0  0  0  0  0  0  0  0  0  0  0
    1.7383    2.3887    1.4010 H   0  0  0  0  0  0  0  0  0  0  0  0
    1.5917    2.8577    3.1599 H   0  0  0  0  0  0  0  0  0  0  0  0
   -0.9019    2.4787    3.0416 H   0  0  0  0  0  0  0  0  0  0  0  0
   -0.7314    1.9813    1.2901 H   0  0  0  0  0  0  0  0  0  0  0  0
   -0.2689   -1.8593    2.7507 H   0  0  0  0  0  0  0  0  0  0  0  0
   -1.2582   -0.9159    1.6389 H   0  0  0  0  0  0  0  0  0  0  0  0
   -0.1129   -2.1143    1.0085 H   0  0  0  0  0  0  0  0  0  0  0  0
   -0.3370   -0.0944    4.3639 H   0  0  0  0  0  0  0  0  0  0  0  0
    0.6116    1.3565    4.7786 H   0  0  0  0  0  0  0  0  0  0  0  0
    3.5226   -0.8320    4.2925 H   0  0  0  0  0  0  0  0  0  0  0  0
    3.1691    0.8063    4.1437 H   0  0  0  0  0  0  0  0  0  0  0  0
    2.7651   -0.2699    2.8734 H   0  0  0  0  0  0  0  0  0  0  0  0
  1  2  2  0  0  0  0
  1 10  1  0  0  0  0
  1 11  1  0  0  0  0
  2  5  1  0  0  0  0
  2  6  1  0  0  0  0
  3  4  1  0  0  0  0
  3  5  1  0  0  0  0
  3 12  1  0  0  0  0
  3 13  1  0  0  0  0
  4  5  1  0  0  0  0
  4 14  1  0  0  0  0
  4 15  1  0  0  0  0
  5  7  1  0  0  0  0
  6 16  1  0  0  0  0
  6 17  1  0  0  0  0
  6 18  1  0  0  0  0
  7  9  1  0  0  0  0
  7 19  1  0  0  0  0
  7 20  1  0  0  0  0
  8  9  1  0  0  0  0
  8 21  1  0  0  0  0
  8 22  1  0  0  0  0
  8 23  1  0  0  0  0
M  CHG  1   8   1
M  END
$$$$
