
  -OEChem-12122420533D

 30 31  0     1  0  0  0  0  0999 V2000
   -0.4756    2.0718    1.6078 C   0  0  0  0  0  0  0  0  0  0  0  0
   -0.0392    3.1476    2.3411 C   0  0  0  0  0  0  0  0  0  0  0  0
    0.4012    1.5637    0.6241 C   0  0  0  0  0  0  0  0  0  0  0  0
    1.2502    3.6666    2.0500 C   0  0  0  0  0  0  0  0  0  0  0  0
   -1.2349   -0.2132   -0.5136 C   0  0  0  0  0  0  0  0  0  0  0  0
   -0.2112   -1.0158    0.2542 C   0  0  1  0  0  0  0  0  0  0  0  0
    0.1295    0.3781   -0.2577 C   0  0  2  0  0  0  0  0  0  0  0  0
   -1.2165   -2.5920    1.9423 C   0  0  0  0  0  0  0  0  0  0  0  0
    2.9767    5.2525    2.4892 C   0  0  0  0  0  0  0  0  0  0  0  0
   -0.3544   -1.3408    1.7285 C   0  0  0  0  0  0  0  0  0  0  0  0
    1.5833    2.1270    0.3919 N   0  0  0  0  0  0  0  0  0  0  0  0
    2.0294    3.1735    1.0853 N   0  0  0  0  0  0  0  0  0  0  0  0
    1.0951    0.4432   -1.4052 N   0  3  0  0  0  0  0  0  0  0  0  0
    1.6661    4.7005    2.7769 O   0  0  0  0  0  0  0  0  0  0  0  0
   -1.4597    1.6483    1.7757 H   0  0  0  0  0  0  0  0  0  0  0  0
   -0.6404    3.6130    3.1154 H   0  0  0  0  0  0  0  0  0  0  0  0
   -1.4806   -0.5124   -1.5294 H   0  0  0  0  0  0  0  0  0  0  0  0
   -2.0665    0.2254    0.0296 H   0  0  0  0  0  0  0  0  0  0  0  0
    0.2500   -1.8197   -0.3211 H   0  0  0  0  0  0  0  0  0  0  0  0
   -2.2249   -2.4514    1.5399 H   0  0  0  0  0  0  0  0  0  0  0  0
   -1.3065   -2.8180    3.0080 H   0  0  0  0  0  0  0  0  0  0  0  0
   -0.7771   -3.4667    1.4521 H   0  0  0  0  0  0  0  0  0  0  0  0
    3.0952    6.0678    3.2004 H   0  0  0  0  0  0  0  0  0  0  0  0
    3.0124    5.6220    1.4626 H   0  0  0  0  0  0  0  0  0  0  0  0
    3.7461    4.4920    2.6357 H   0  0  0  0  0  0  0  0  0  0  0  0
    0.6432   -1.4908    2.1565 H   0  0  0  0  0  0  0  0  0  0  0  0
   -0.7959   -0.4964    2.2649 H   0  0  0  0  0  0  0  0  0  0  0  0
    1.5058   -0.4638   -1.6445 H   0  0  0  0  0  0  0  0  0  0  0  0
    1.8423    1.1111   -1.0409 H   0  0  0  0  0  0  0  0  0  0  0  0
    0.6781    0.8535   -2.2481 H   0  0  0  0  0  0  0  0  0  0  0  0
  1  2  1  0  0  0  0
  1  3  2  0  0  0  0
  1 15  1  0  0  0  0
  2  4  2  0  0  0  0
  2 16  1  0  0  0  0
  3  7  1  0  0  0  0
  3 11  1  0  0  0  0
  4 12  1  0  0  0  0
  4 14  1  0  0  0  0
  5  6  1  0  0  0  0
  5  7  1  0  0  0  0
  5 17  1  0  0  0  0
  5 18  1  0  0  0  0
  6  7  1  0  0  0  0
  6 10  1  0  0  0  0
  6 19  1  0  0  0  0
  7 13  1  0  0  0  0
  8 10  1  0  0  0  0
  8 20  1  0  0  0  0
  8 21  1  0  0  0  0
  8 22  1  0  0  0  0
  9 14  1  0  0  0  0
  9 23  1  0  0  0  0
  9 24  1  0  0  0  0
  9 25  1  0  0  0  0
 10 26  1  0  0  0  0
 10 27  1  0  0  0  0
 11 12  2  0  0  0  0
 13 28  1  0  0  0  0
 13 29  1  0  0  0  0
 13 30  1  0  0  0  0
M  CHG  1  13   1
M  END
$$$$
