
  -OEChem-12122420533D

 19 18  0     0  0  0  0  0  0999 V2000
    3.0680   -0.3970    0.2489 C   0  0  0  0  0  0  0  0  0  0  0  0
    0.1172   -0.5853   -0.5427 C   0  0  0  0  0  0  0  0  0  0  0  0
   -2.3491   -0.3054   -0.9348 C   0  0  0  0  0  0  0  0  0  0  0  0
   -1.0935    1.1613    0.7286 C   0  0  0  0  0  0  0  0  0  0  0  0
   -1.2198   -0.2419    0.1001 C   0  0  0  0  0  0  0  0  0  0  0  0
    2.2821   -1.4886   -0.0713 N   0  0  0  0  0  0  0  0  0  0  0  0
    0.9200   -1.4420    0.2159 N   0  0  0  0  0  0  0  0  0  0  0  0
    2.7294    0.4957    1.0049 O   0  0  0  0  0  0  0  0  0  0  0  0
    0.4824   -0.1742   -1.6334 O   0  0  0  0  0  0  0  0  0  0  0  0
    4.0687   -0.4678   -0.2157 H   0  0  0  0  0  0  0  0  0  0  0  0
   -2.1414    0.3769   -1.7630 H   0  0  0  0  0  0  0  0  0  0  0  0
   -3.2996   -0.0180   -0.4739 H   0  0  0  0  0  0  0  0  0  0  0  0
   -2.4583   -1.3140   -1.3462 H   0  0  0  0  0  0  0  0  0  0  0  0
   -0.9036    1.9059   -0.0500 H   0  0  0  0  0  0  0  0  0  0  0  0
   -0.2702    1.2099    1.4479 H   0  0  0  0  0  0  0  0  0  0  0  0
   -2.0231    1.4257    1.2427 H   0  0  0  0  0  0  0  0  0  0  0  0
   -1.4239   -0.9664    0.8992 H   0  0  0  0  0  0  0  0  0  0  0  0
    2.5134   -2.0121   -0.9082 H   0  0  0  0  0  0  0  0  0  0  0  0
    0.7202   -1.5206    1.2066 H   0  0  0  0  0  0  0  0  0  0  0  0
  1  6  1  0  0  0  0
  1  8  2  0  0  0  0
  1 10  1  0  0  0  0
  2  5  1  0  0  0  0
  2  7  1  0  0  0  0
  2  9  2  0  0  0  0
  3  5  1  0  0  0  0
  3 11  1  0  0  0  0
  3 12  1  0  0  0  0
  3 13  1  0  0  0  0
  4  5  1  0  0  0  0
  4 14  1  0  0  0  0
  4 15  1  0  0  0  0
  4 16  1  0  0  0  0
  5 17  1  0  0  0  0
  6  7  1  0  0  0  0
  6 18  1  0  0  0  0
  7 19  1  0  0  0  0
M  END
$$$$
