
  -OEChem-12122420533D

 23 23  0     0  0  0  0  0  0999 V2000
   -0.5419   -1.1845    0.9608 C   0  0  0  0  0  0  0  0  0  0  0  0
    0.5692   -0.5667    1.3810 C   0  0  0  0  0  0  0  0  0  0  0  0
    0.8573    1.9831    1.8860 C   0  0  0  0  0  0  0  0  0  0  0  0
   -0.5653    1.6558    2.2405 C   0  0  0  0  0  0  0  0  0  0  0  0
    0.5003    0.5765    2.3624 C   0  0  0  0  0  0  0  0  0  0  0  0
    1.9505   -0.9563    0.9108 C   0  0  0  0  0  0  0  0  0  0  0  0
    0.9465    0.2407    3.7521 C   0  0  0  0  0  0  0  0  0  0  0  0
    0.2727   -1.1880    5.5518 N   0  3  0  0  0  0  0  0  0  0  0  0
   -0.1402   -0.5937    4.3372 O   0  0  0  0  0  0  0  0  0  0  0  0
   -0.5000   -2.0020    0.2456 H   0  0  0  0  0  0  0  0  0  0  0  0
   -1.5280   -0.8808    1.3021 H   0  0  0  0  0  0  0  0  0  0  0  0
    1.1080    2.0733    0.8342 H   0  0  0  0  0  0  0  0  0  0  0  0
    1.4275    2.6346    2.5421 H   0  0  0  0  0  0  0  0  0  0  0  0
   -0.9788    2.0748    3.1533 H   0  0  0  0  0  0  0  0  0  0  0  0
   -1.2782    1.5482    1.4313 H   0  0  0  0  0  0  0  0  0  0  0  0
    2.4388   -0.1202    0.3978 H   0  0  0  0  0  0  0  0  0  0  0  0
    2.6082   -1.2335    1.7453 H   0  0  0  0  0  0  0  0  0  0  0  0
    1.9145   -1.8047    0.2241 H   0  0  0  0  0  0  0  0  0  0  0  0
    1.0602    1.1252    4.3885 H   0  0  0  0  0  0  0  0  0  0  0  0
    1.8664   -0.3572    3.7596 H   0  0  0  0  0  0  0  0  0  0  0  0
   -0.5340   -1.7381    5.8807 H   0  0  0  0  0  0  0  0  0  0  0  0
    0.5117   -0.4799    6.2655 H   0  0  0  0  0  0  0  0  0  0  0  0
    1.0763   -1.8215    5.4075 H   0  0  0  0  0  0  0  0  0  0  0  0
  1  2  2  0  0  0  0
  1 10  1  0  0  0  0
  1 11  1  0  0  0  0
  2  5  1  0  0  0  0
  2  6  1  0  0  0  0
  3  4  1  0  0  0  0
  3  5  1  0  0  0  0
  3 12  1  0  0  0  0
  3 13  1  0  0  0  0
  4  5  1  0  0  0  0
  4 14  1  0  0  0  0
  4 15  1  0  0  0  0
  5  7  1  0  0  0  0
  6 16  1  0  0  0  0
  6 17  1  0  0  0  0
  6 18  1  0  0  0  0
  7  9  1  0  0  0  0
  7 19  1  0  0  0  0
  7 20  1  0  0  0  0
  8  9  1  0  0  0  0
  8 21  1  0  0  0  0
  8 22  1  0  0  0  0
  8 23  1  0  0  0  0
M  CHG  1   8   1
M  END
$$$$
