
  -OEChem-12122420533D

 29 30  0     1  0  0  0  0  0999 V2000
   -1.7059    1.5382   -0.3977 C   0  0  0  0  0  0  0  0  0  0  0  0
   -2.9003    1.8614    0.1963 C   0  0  0  0  0  0  0  0  0  0  0  0
   -0.8791    0.5680    0.2278 C   0  0  0  0  0  0  0  0  0  0  0  0
   -3.2140    1.1875    1.3985 C   0  0  0  0  0  0  0  0  0  0  0  0
    1.2277    1.0902   -1.2109 C   0  0  0  0  0  0  0  0  0  0  0  0
    0.5134   -0.0619   -1.8651 C   0  0  2  0  0  0  0  0  0  0  0  0
    0.4359    0.1226   -0.3444 C   0  0  2  0  0  0  0  0  0  0  0  0
    0.4189   -2.5084   -2.5038 C   0  0  0  0  0  0  0  0  0  0  0  0
   -4.7005    0.8077    3.2145 C   0  0  0  0  0  0  0  0  0  0  0  0
    1.2675   -1.2315   -2.4625 C   0  0  0  0  0  0  0  0  0  0  0  0
   -1.2480   -0.0215    1.3648 N   0  0  0  0  0  0  0  0  0  0  0  0
   -2.4186    0.2856    1.9531 N   0  0  0  0  0  0  0  0  0  0  0  0
    1.2374   -0.7789    0.4525 N   0  0  0  0  0  0  0  0  0  0  0  0
   -4.3906    1.4980    1.9900 O   0  0  0  0  0  0  0  0  0  0  0  0
   -1.4064    2.0193   -1.3235 H   0  0  0  0  0  0  0  0  0  0  0  0
   -3.5881    2.5942   -0.2141 H   0  0  0  0  0  0  0  0  0  0  0  0
    2.3070    1.0139   -1.1165 H   0  0  0  0  0  0  0  0  0  0  0  0
    0.8530    2.1011   -1.3440 H   0  0  0  0  0  0  0  0  0  0  0  0
   -0.4068    0.1900   -2.3906 H   0  0  0  0  0  0  0  0  0  0  0  0
    0.1274   -2.8138   -1.4934 H   0  0  0  0  0  0  0  0  0  0  0  0
    0.9715   -3.3373   -2.9592 H   0  0  0  0  0  0  0  0  0  0  0  0
   -0.4989   -2.3598   -3.0849 H   0  0  0  0  0  0  0  0  0  0  0  0
   -5.6714    1.1981    3.5212 H   0  0  0  0  0  0  0  0  0  0  0  0
   -3.9438    1.0119    3.9764 H   0  0  0  0  0  0  0  0  0  0  0  0
   -4.7531   -0.2714    3.0481 H   0  0  0  0  0  0  0  0  0  0  0  0
    1.5863   -0.9619   -3.4781 H   0  0  0  0  0  0  0  0  0  0  0  0
    2.1718   -1.4090   -1.8750 H   0  0  0  0  0  0  0  0  0  0  0  0
    0.6326   -1.5188    0.8085 H   0  0  0  0  0  0  0  0  0  0  0  0
    1.5505   -0.2808    1.2859 H   0  0  0  0  0  0  0  0  0  0  0  0
  1  2  1  0  0  0  0
  1  3  2  0  0  0  0
  1 15  1  0  0  0  0
  2  4  2  0  0  0  0
  2 16  1  0  0  0  0
  3  7  1  0  0  0  0
  3 11  1  0  0  0  0
  4 12  1  0  0  0  0
  4 14  1  0  0  0  0
  5  6  1  0  0  0  0
  5  7  1  0  0  0  0
  5 17  1  0  0  0  0
  5 18  1  0  0  0  0
  6  7  1  0  0  0  0
  6 10  1  0  0  0  0
  6 19  1  0  0  0  0
  7 13  1  0  0  0  0
  8 10  1  0  0  0  0
  8 20  1  0  0  0  0
  8 21  1  0  0  0  0
  8 22  1  0  0  0  0
  9 14  1  0  0  0  0
  9 23  1  0  0  0  0
  9 24  1  0  0  0  0
  9 25  1  0  0  0  0
 10 26  1  0  0  0  0
 10 27  1  0  0  0  0
 11 12  2  0  0  0  0
 13 28  1  0  0  0  0
 13 29  1  0  0  0  0
M  END
$$$$
