
  -OEChem-12102412493D

 22 22  0     0  0  0  0  0  0999 V2000
    0.8647   -0.9559   -0.2884 C   0  0  0  0  0  0  0  0  0  0  0  0
    0.0190    0.2458   -0.7015 C   0  0  0  0  0  0  0  0  0  0  0  0
   -0.7545    0.4907    0.6190 C   0  0  0  0  0  0  0  0  0  0  0  0
    1.0084    1.3834   -1.0400 C   0  0  0  0  0  0  0  0  0  0  0  0
   -0.8412   -0.0808   -1.9245 C   0  0  0  0  0  0  0  0  0  0  0  0
   -1.9425   -0.4584    0.8150 C   0  0  0  0  0  0  0  0  0  0  0  0
   -1.1578    1.9331    0.9033 C   0  0  0  0  0  0  0  0  0  0  0  0
    1.4028   -1.7912   -0.9737 O   0  0  0  0  0  0  0  0  0  0  0  0
    0.9656   -1.0011    1.0797 O   0  0  0  0  0  0  0  0  0  0  0  0
    0.2712    0.1757    1.6111 O   0  0  0  0  0  0  0  0  0  0  0  0
    0.4654    2.2696   -1.3812 H   0  0  0  0  0  0  0  0  0  0  0  0
    1.6728    1.0611   -1.8464 H   0  0  0  0  0  0  0  0  0  0  0  0
    1.6224    1.6583   -0.1786 H   0  0  0  0  0  0  0  0  0  0  0  0
   -1.4726    0.7762   -2.1819 H   0  0  0  0  0  0  0  0  0  0  0  0
   -1.4823   -0.9497   -1.7639 H   0  0  0  0  0  0  0  0  0  0  0  0
   -0.1963   -0.2998   -2.7792 H   0  0  0  0  0  0  0  0  0  0  0  0
   -2.3005   -0.3729    1.8442 H   0  0  0  0  0  0  0  0  0  0  0  0
   -1.6652   -1.5014    0.6396 H   0  0  0  0  0  0  0  0  0  0  0  0
   -2.7641   -0.2022    0.1406 H   0  0  0  0  0  0  0  0  0  0  0  0
   -1.6530    2.0001    1.8760 H   0  0  0  0  0  0  0  0  0  0  0  0
   -1.8643    2.2724    0.1395 H   0  0  0  0  0  0  0  0  0  0  0  0
   -0.2966    2.6023    0.9089 H   0  0  0  0  0  0  0  0  0  0  0  0
  1  2  1  0  0  0  0
  1  8  2  0  0  0  0
  1  9  1  0  0  0  0
  2  3  1  0  0  0  0
  2  4  1  0  0  0  0
  2  5  1  0  0  0  0
  3  6  1  0  0  0  0
  3  7  1  0  0  0  0
  3 10  1  0  0  0  0
  4 11  1  0  0  0  0
  4 12  1  0  0  0  0
  4 13  1  0  0  0  0
  5 14  1  0  0  0  0
  5 15  1  0  0  0  0
  5 16  1  0  0  0  0
  6 17  1  0  0  0  0
  6 18  1  0  0  0  0
  6 19  1  0  0  0  0
  7 20  1  0  0  0  0
  7 21  1  0  0  0  0
  7 22  1  0  0  0  0
  9 10  1  0  0  0  0
M  END
$$$$
