
  -OEChem-12102412493D

 18 17  0     0  0  0  0  0  0999 V2000
    2.2196   -2.3521   -2.3060 C   0  0  0  0  0  0  0  0  0  0  0  0
    0.2494   -0.6778    0.0763 C   0  0  0  0  0  0  0  0  0  0  0  0
   -1.7764    0.7408    0.4970 C   0  0  0  0  0  0  0  0  0  0  0  0
   -2.0710   -1.7745    0.3618 C   0  0  0  0  0  0  0  0  0  0  0  0
   -1.1283   -0.6311    0.7528 C   0  0  0  0  0  0  0  0  0  0  0  0
    0.4054   -1.6377   -0.8344 N   0  5  0  0  0  0  0  0  0  0  0  0
    1.6942   -1.5501   -1.3653 N   0  0  0  0  0  0  0  0  0  0  0  0
    1.7072   -3.3150   -2.8956 O   0  0  0  0  0  0  0  0  0  0  0  0
    1.1161    0.1932    0.4272 O   0  0  0  0  0  0  0  0  0  0  0  0
    3.2647   -2.0303   -2.5223 H   0  0  0  0  0  0  0  0  0  0  0  0
   -2.0279    0.8504   -0.5660 H   0  0  0  0  0  0  0  0  0  0  0  0
   -1.0785    1.5387    0.7656 H   0  0  0  0  0  0  0  0  0  0  0  0
   -2.7015    0.8616    1.0780 H   0  0  0  0  0  0  0  0  0  0  0  0
   -2.2943   -1.7439   -0.7092 H   0  0  0  0  0  0  0  0  0  0  0  0
   -1.6140   -2.7474    0.5623 H   0  0  0  0  0  0  0  0  0  0  0  0
   -3.0160   -1.7026    0.9203 H   0  0  0  0  0  0  0  0  0  0  0  0
   -0.9256   -0.6973    1.8322 H   0  0  0  0  0  0  0  0  0  0  0  0
    2.2537   -0.7885   -0.9721 H   0  0  0  0  0  0  0  0  0  0  0  0
  1  7  1  0  0  0  0
  1  8  2  0  0  0  0
  1 10  1  0  0  0  0
  2  5  1  0  0  0  0
  2  6  1  0  0  0  0
  2  9  2  0  0  0  0
  3  5  1  0  0  0  0
  3 11  1  0  0  0  0
  3 12  1  0  0  0  0
  3 13  1  0  0  0  0
  4  5  1  0  0  0  0
  4 14  1  0  0  0  0
  4 15  1  0  0  0  0
  4 16  1  0  0  0  0
  5 17  1  0  0  0  0
  6  7  1  0  0  0  0
  7 18  1  0  0  0  0
M  CHG  1   6  -1
M  END
$$$$
