
  -OEChem-12102412493D

 20 21  0     1  0  0  0  0  0999 V2000
    1.7447   -0.7215    1.0970 C   0  0  0  0  0  0  0  0  0  0  0  0
    0.2701   -0.8498    1.5522 C   0  0  0  0  0  0  0  0  0  0  0  0
    1.7123    0.0500   -0.2456 C   0  0  0  0  0  0  0  0  0  0  0  0
   -0.4546    0.3383    0.9157 C   0  0  1  0  0  0  0  0  0  0  0  0
    0.4390    0.8967   -0.1984 C   0  0  2  0  0  0  0  0  0  0  0  0
   -0.8778    0.2168   -0.5221 C   0  0  0  0  0  0  0  0  0  0  0  0
   -2.0344    1.0540   -1.0242 C   0  0  0  0  0  0  0  0  0  0  0  0
   -0.8539   -1.0942   -1.0567 O   0  0  0  0  0  0  0  0  0  0  0  0
    2.2986   -0.1289    1.8346 H   0  0  0  0  0  0  0  0  0  0  0  0
    2.2468   -1.6912    1.0139 H   0  0  0  0  0  0  0  0  0  0  0  0
   -0.1639   -1.7931    1.2091 H   0  0  0  0  0  0  0  0  0  0  0  0
    0.1797   -0.8206    2.6422 H   0  0  0  0  0  0  0  0  0  0  0  0
    2.5962    0.6822   -0.3733 H   0  0  0  0  0  0  0  0  0  0  0  0
    1.6902   -0.6486   -1.0898 H   0  0  0  0  0  0  0  0  0  0  0  0
   -1.0327    1.0055    1.5501 H   0  0  0  0  0  0  0  0  0  0  0  0
    0.5107    1.9681   -0.3698 H   0  0  0  0  0  0  0  0  0  0  0  0
   -1.9692    1.2035   -2.1097 H   0  0  0  0  0  0  0  0  0  0  0  0
   -2.0411    2.0418   -0.5530 H   0  0  0  0  0  0  0  0  0  0  0  0
   -2.9858    0.5583   -0.8040 H   0  0  0  0  0  0  0  0  0  0  0  0
   -0.6088   -1.0259   -1.9935 H   0  0  0  0  0  0  0  0  0  0  0  0
  1  2  1  0  0  0  0
  1  3  1  0  0  0  0
  1  9  1  0  0  0  0
  1 10  1  0  0  0  0
  2  4  1  0  0  0  0
  2 11  1  0  0  0  0
  2 12  1  0  0  0  0
  3  5  1  0  0  0  0
  3 13  1  0  0  0  0
  3 14  1  0  0  0  0
  4  5  1  0  0  0  0
  4  6  1  0  0  0  0
  4 15  1  0  0  0  0
  5  6  1  0  0  0  0
  5 16  1  0  0  0  0
  6  7  1  0  0  0  0
  6  8  1  0  0  0  0
  7 17  1  0  0  0  0
  7 18  1  0  0  0  0
  7 19  1  0  0  0  0
  8 20  1  0  0  0  0
M  END
$$$$
