
  -OEChem-12102412493D

 22 22  0     0  0  0  0  0  0999 V2000
   -0.4973   -1.0282    1.0242 C   0  0  0  0  0  0  0  0  0  0  0  0
    0.6495   -0.4036    1.3269 C   0  0  0  0  0  0  0  0  0  0  0  0
    1.0373    2.1434    1.6248 C   0  0  0  0  0  0  0  0  0  0  0  0
   -0.3805    1.8650    2.0915 C   0  0  0  0  0  0  0  0  0  0  0  0
    0.6801    0.8013    2.2289 C   0  0  0  0  0  0  0  0  0  0  0  0
    1.9833   -0.8835    0.8019 C   0  0  0  0  0  0  0  0  0  0  0  0
    1.2253    0.4737    3.6202 C   0  0  0  0  0  0  0  0  0  0  0  0
    0.3203    1.9394    5.2420 N   0  0  0  0  0  0  0  0  0  0  0  0
    1.4864    1.6125    4.4479 O   0  0  0  0  0  0  0  0  0  0  0  0
   -0.5158   -1.9047    0.3800 H   0  0  0  0  0  0  0  0  0  0  0  0
   -1.4514   -0.6789    1.4106 H   0  0  0  0  0  0  0  0  0  0  0  0
    1.2114    2.1869    0.5530 H   0  0  0  0  0  0  0  0  0  0  0  0
    1.6481    2.8136    2.2222 H   0  0  0  0  0  0  0  0  0  0  0  0
   -0.7333    2.3498    2.9945 H   0  0  0  0  0  0  0  0  0  0  0  0
   -1.1387    1.7271    1.3272 H   0  0  0  0  0  0  0  0  0  0  0  0
    2.4976   -0.0807    0.2606 H   0  0  0  0  0  0  0  0  0  0  0  0
    2.6505   -1.1886    1.6167 H   0  0  0  0  0  0  0  0  0  0  0  0
    1.8662   -1.7368    0.1282 H   0  0  0  0  0  0  0  0  0  0  0  0
    2.1997   -0.0176    3.5249 H   0  0  0  0  0  0  0  0  0  0  0  0
    0.5401   -0.2059    4.1379 H   0  0  0  0  0  0  0  0  0  0  0  0
    0.2194    2.9478    5.1052 H   0  0  0  0  0  0  0  0  0  0  0  0
    0.6542    1.8278    6.2033 H   0  0  0  0  0  0  0  0  0  0  0  0
  1  2  2  0  0  0  0
  1 10  1  0  0  0  0
  1 11  1  0  0  0  0
  2  5  1  0  0  0  0
  2  6  1  0  0  0  0
  3  4  1  0  0  0  0
  3  5  1  0  0  0  0
  3 12  1  0  0  0  0
  3 13  1  0  0  0  0
  4  5  1  0  0  0  0
  4 14  1  0  0  0  0
  4 15  1  0  0  0  0
  5  7  1  0  0  0  0
  6 16  1  0  0  0  0
  6 17  1  0  0  0  0
  6 18  1  0  0  0  0
  7  9  1  0  0  0  0
  7 19  1  0  0  0  0
  7 20  1  0  0  0  0
  8  9  1  0  0  0  0
  8 21  1  0  0  0  0
  8 22  1  0  0  0  0
M  END
$$$$
