
  -OEChem-12102412493D

 21 21  0     0  0  0  0  0  0999 V2000
   -0.6367    0.5116    1.0393 C   0  0  0  0  0  0  0  0  0  0  0  0
    0.3712    0.2001   -1.2311 C   0  0  0  0  0  0  0  0  0  0  0  0
   -0.9495    0.3724   -0.4607 C   0  0  0  0  0  0  0  0  0  0  0  0
   -1.8654   -0.8383   -0.7013 C   0  0  0  0  0  0  0  0  0  0  0  0
   -1.6263    1.6659   -0.9386 C   0  0  0  0  0  0  0  0  0  0  0  0
    0.1195   -0.6270    1.5405 O   0  0  0  0  0  0  0  0  0  0  0  0
    1.1345   -0.9402   -0.7449 O   0  0  0  0  0  0  0  0  0  0  0  0
    1.5714   -0.8477    0.8260 P   0  0  0  0  0  0  0  0  0  0  0  0
    2.9509    0.4350    1.2624 S   0  0  0  0  0  0  0  0  0  0  0  0
    2.0078   -2.8434    1.2940 S   0  0  0  0  0  0  0  0  0  0  0  0
   -0.0695    1.4265    1.2447 H   0  0  0  0  0  0  0  0  0  0  0  0
   -1.5530    0.5252    1.6327 H   0  0  0  0  0  0  0  0  0  0  0  0
    0.1863   -0.0131   -2.2858 H   0  0  0  0  0  0  0  0  0  0  0  0
    0.9959    1.0973   -1.1565 H   0  0  0  0  0  0  0  0  0  0  0  0
   -2.8094   -0.7228   -0.1583 H   0  0  0  0  0  0  0  0  0  0  0  0
   -1.3938   -1.7655   -0.3674 H   0  0  0  0  0  0  0  0  0  0  0  0
   -2.0990   -0.9406   -1.7663 H   0  0  0  0  0  0  0  0  0  0  0  0
   -2.5696    1.8298   -0.4068 H   0  0  0  0  0  0  0  0  0  0  0  0
   -1.8559    1.6116   -2.0081 H   0  0  0  0  0  0  0  0  0  0  0  0
   -0.9889    2.5415   -0.7739 H   0  0  0  0  0  0  0  0  0  0  0  0
    0.8273   -3.3219    0.8405 H   0  0  0  0  0  0  0  0  0  0  0  0
  1  3  1  0  0  0  0
  1  6  1  0  0  0  0
  1 11  1  0  0  0  0
  1 12  1  0  0  0  0
  2  3  1  0  0  0  0
  2  7  1  0  0  0  0
  2 13  1  0  0  0  0
  2 14  1  0  0  0  0
  3  4  1  0  0  0  0
  3  5  1  0  0  0  0
  4 15  1  0  0  0  0
  4 16  1  0  0  0  0
  4 17  1  0  0  0  0
  5 18  1  0  0  0  0
  5 19  1  0  0  0  0
  5 20  1  0  0  0  0
  6  8  1  0  0  0  0
  7  8  1  0  0  0  0
  8  9  2  0  0  0  0
  8 10  1  0  0  0  0
 10 21  1  0  0  0  0
M  END
$$$$
