20   
torsion grid (-165,)
C        0.9508776710    0.9847763646   -1.4223043622
C        1.9170256965    0.3591245078    0.8459549824
C        0.8175166199    0.0806726529   -0.1911808336
C       -0.5732161472    0.1804530037    0.4625204043
C       -1.8200001341   -1.3828785900   -0.8388750235
N       -0.8558948297    1.5299040471    0.9175727996
O       -1.6424795216   -0.0837391759   -0.4846036177
F       -2.3336946702   -2.1243399499    0.2118646963
F       -2.7420632750   -1.4078926016   -1.8336937946
H        0.1848071224    0.7562730564   -2.1682574947
H        0.8388404996    2.0360499513   -1.1446100397
H        1.9338410499    0.8494736475   -1.8859706673
H        1.7841971774   -0.2422586518    1.7533151392
H        2.9006746413    0.1188575862    0.4309592366
H        1.9388637212    1.4165498139    1.1321224492
H        0.9398243522   -0.9632883666   -0.5092509519
H       -0.6530335519   -0.5775008789    1.2584753720
H       -0.9184907193   -1.9011264247   -1.1794111966
H       -0.2135699555    1.7795959253    1.6655815648
H       -1.7981777784    1.5561616562    1.3041785548
20   
torsion grid (-150,)
C        0.9935690882    1.1050629318   -1.4090216430
C        1.9356861408    0.3314803916    0.8243027500
C        0.8502955709    0.1200532624   -0.2427514607
C       -0.5508114221    0.1615009328    0.3898153119
C       -1.8778746411   -1.4465040484   -0.7421908999
N       -0.8940877755    1.4837717987    0.8748176352
O       -1.5716803660   -0.1313221522   -0.6030378833
F       -2.6638074956   -1.8891025037    0.3091572301
F       -2.6148373979   -1.5802772320   -1.8732293950
H        0.2201318184    0.9363423772   -2.1626805461
H        0.9004689751    2.1375438918   -1.0617644321
H        1.9727467760    0.9863808862   -1.8851043587
H        1.8051310475   -0.3423541064    1.6795058004
H        2.9272229201    0.1427180622    0.4013593364
H        1.9382597947    1.3623830535    1.1965303832
H        0.9738376683   -0.8993239516   -0.6337080243
H       -0.6179015317   -0.6180046154    1.1666624476
H       -1.0163941994   -2.1206279112   -0.7969447055
H       -0.2342344482    1.7696407039    1.5941216439
H       -1.8198725538    1.4555058025    1.2985480273
20   
torsion grid (-135,)
C        1.4878700553    0.3734725373   -1.2045126491
C        1.5529857224    0.4186456122    1.3317304792
C        0.7876724951   -0.0588061652    0.0898351617
C       -0.6825295036    0.4116308152    0.1500639209
C       -2.1220871031   -1.2657880710   -0.7304512162
N       -0.9276032235    1.8404445575    0.0979395037
O       -1.3999471355   -0.1472686080   -0.9812005333
F       -2.8716449214   -1.5299110594   -1.8289890000
F       -1.3072629591   -2.3712386608   -0.5273668266
H        0.9267896095    0.0519679214   -2.0858982592
H        1.6155015405    1.4618708370   -1.2524760133
H        2.4880562799   -0.0679919675   -1.2580550407
H        1.0500956568    0.1206110439    2.2596189307
H        2.5592505098   -0.0113368055    1.3495495481
H        1.6656934195    1.5092763090    1.3413056198
H        0.7548543330   -1.1535484690    0.1092977922
H       -1.1326198518    0.0382957406    1.0797407947
H       -2.7747480504   -1.1916789748    0.1469088120
H       -0.4482098492    2.2515963143   -0.7013518061
H       -0.5662690557    2.2846246663    0.9386979987
20   
torsion grid (-120,)
C        1.5308176132    0.4366315476   -1.2120264187
C        1.5889957546    0.4163241518    1.3244047832
C        0.8485844755   -0.0616617360    0.0681154804
C       -0.6407758507    0.3359119816    0.1344380262
C       -2.2052378313   -1.2313252962   -0.7103656935
N       -0.9655468536    1.7503848562    0.0980571468
O       -1.3047538687   -0.2620461504   -1.0090345659
F       -2.8165162476   -1.5974165785   -1.8635528344
F       -1.5791817354   -2.3626696531   -0.2061419169
H        0.9871183492    0.1136710169   -2.1038469811
H        1.6080820146    1.5306639560   -1.2293276570
H        2.5504998118    0.0435401472   -1.2743977411
H        1.1025393187    0.0644155359    2.2419006049
H        2.6165795506    0.0397175178    1.3301209975
H        1.6442887389    1.5107762148    1.3667891226
H        0.8599187965   -1.1578391099    0.0579910884
H       -1.0665712364   -0.0727447354    1.0587707534
H       -2.9620798987   -0.9339675914    0.0237702754
H       -0.5247665297    2.1921235932   -0.7071460711
H       -0.6161464030    2.2103779058    0.9358688184
20   
torsion grid (-105,)
C        1.5607954806    0.4607768159   -1.2160275186
C        1.6277967716    0.4538169212    1.3201180184
C        0.9108154303   -0.0691240317    0.0684305674
C       -0.5972206052    0.2442892527    0.1391459465
C       -2.2748805527   -1.1826664816   -0.7234305751
N       -1.0015021832    1.6392964666    0.1128950232
O       -1.2098832705   -0.3903439732   -1.0112454951
F       -2.8338465917   -1.5653801906   -1.8981642117
F       -1.8731472728   -2.3371961060   -0.0699094451
H        1.0344664447    0.1036860533   -2.1050646757
H        1.5757247273    1.5573529777   -1.2382343002
H        2.6010973747    0.1260504950   -1.2789595871
H        1.1657581033    0.0775482212    2.2405210231
H        2.6752709250    0.1366703725    1.3226259408
H        1.6202613265    1.5497087904    1.3589620226
H        0.9811569627   -1.1635296525    0.0618400643
H       -0.9966625789   -0.1976221382    1.0589441144
H       -3.0352339375   -0.7052823233   -0.0966937153
H       -0.5781291543    2.1145586924   -0.6822689780
H       -0.6967894314    2.1122574119    0.9609029985
20   
torsion grid (-90,)
C        1.5755848416    0.4734787010   -1.2242886301
C        1.6634728842    0.4956194910    1.3110588236
C        0.9670626183   -0.0797514948    0.0709457709
C       -0.5542835307    0.1492698868    0.1544757008
C       -2.3255532204   -1.1240134554   -0.7440682503
N       -1.0335992737    1.5204099507    0.1258259355
O       -1.1253659521   -0.5328941613   -0.9889825807
F       -2.8291562076   -1.5407507419   -1.9328673842
F       -2.1684279429   -2.2507315605    0.0462805374
H        1.0673775471    0.0744465343   -2.1058136747
H        1.5235225896    1.5686796459   -1.2599889528
H        2.6342807159    0.2030105158   -1.2892561811
H        1.2322048360    0.1017423851    2.2389311454
H        2.7275862689    0.2399689231    1.3062703809
H        1.5911917347    1.5893362662    1.3398978844
H        1.0994292658   -1.1683647116    0.0728280712
H       -0.9223579628   -0.3127943406    1.0769537513
H       -3.0513952986   -0.4739812539   -0.2464701325
H       -0.5908572099    2.0397123216   -0.6297741930
H       -0.8248687348    1.9924746723    1.0024291953
20   
torsion grid (-75,)
C        1.5732437127    0.4810416619   -1.2333388231
C        1.6965846829    0.5343993303    1.3003236725
C        1.0138695496   -0.0899586718    0.0764954295
C       -0.5148792540    0.0594870721    0.1831525682
C       -2.3560739337   -1.0637105484   -0.7747476435
N       -1.0626738547    1.4044808408    0.1465870781
O       -1.0586298289   -0.6815515829   -0.9366087043
F       -2.7933814035   -1.5438186434   -1.9672315764
F       -2.4523520372   -2.1002035948    0.1390668298
H        1.0716171042    0.0493976783   -2.1030354521
H        1.4674245999    1.5721571751   -1.2782734523
H        2.6429897215    0.2629049998   -1.3125863016
H        1.3076518546    0.1201351784    2.2378741048
H        2.7741503387    0.3446326095    1.2762272850
H        1.5568693795    1.6215820860    1.3254884409
H        1.2047777642   -1.1696769037    0.0861810734
H       -0.8474957645   -0.4091568083    1.1159070443
H       -3.0157705896   -0.2617784070   -0.4344709169
H       -0.6039485034    1.9669695616   -0.5670109908
H       -0.9481255699    1.8675345401    1.0443875521
20   
torsion grid (-60,)
C        1.5476098564    0.4828039342   -1.2443735071
C        1.7326396016    0.5654357011    1.2858081489
C        1.0470721492   -0.0983957498    0.0848069525
C       -0.4821463950   -0.0129891520    0.2291967371
C       -2.3632286117   -1.0095865184   -0.8196540815
N       -1.0846213657    1.3066838725    0.1826065429
O       -1.0132708455   -0.8242444791   -0.8494079985
F       -2.7184138462   -1.5922505511   -1.9948590312
F       -2.7134306411   -1.8900923284    0.1911154966
H        1.0422968720    0.0206210201   -2.0959618940
H        1.3950130824    1.5681467130   -1.2978478908
H        2.6233727711    0.3099587014   -1.3493707318
H        1.3863815621    0.1420941188    2.2358259241
H        2.8165602356    0.4231867054    1.2347476547
H        1.5446275168    1.6453377284    1.3071507656
H        1.2842962596   -1.1687175348    0.0972888473
H       -0.7756962949   -0.4732250580    1.1794801709
H       -2.9344257372   -0.0922125263   -0.6694930880
H       -0.6081766129    1.9143279747   -0.4799467756
H       -1.0706115881    1.7479850019    1.0972749754
20   
torsion grid (-45,)
C        1.5030027047    0.4807052404   -1.2559296455
C        1.7698912991    0.5897178377    1.2671388875
C        1.0665722972   -0.1046250271    0.0939560834
C       -0.4577890597   -0.0673543436    0.2886186617
C       -2.3453290795   -0.9658399359   -0.8775684381
N       -1.0970992598    1.2304658472    0.2322223101
O       -0.9911639327   -0.9531313505   -0.7368805860
F       -2.6263061296   -1.6845435356   -1.9982550345
F       -2.9424326855   -1.6256305126    0.1859507488
H        0.9834885815   -0.0052844374   -2.0854260636
H        1.3155170913    1.5605107192   -1.3142654985
H        2.5794566951    0.3409551110   -1.3964692998
H        1.4733005680    0.1580194792    2.2299756703
H        2.8557984183    0.4872023126    1.1774455696
H        1.5419007638    1.6617121229    1.2926271885
H        1.3387126839   -1.1664430323    0.1050075801
H       -0.7076613381   -0.5131405039    1.2578440428
H       -2.7999761452    0.0221653232   -0.9427354179
H       -0.5922384803    1.8882326541   -0.3557474727
H       -1.2117970238    1.6311736051    1.1568779313
20   
torsion grid (-30,)
C        1.4363067333    0.4642530388   -1.2669063158
C        1.8098401916    0.6154958541    1.2425875928
C        1.0718381707   -0.1086185683    0.1094982038
C       -0.4427133899   -0.1033052421    0.3656107047
C       -2.3010824374   -0.9319389609   -0.9374091965
N       -1.1010138242    1.1779849254    0.2906475839
O       -0.9922816502   -1.0611774078   -0.5975819086
F       -2.5188845512   -1.7386549552   -2.0138047726
F       -3.1230268775   -1.3931291842    0.0810224850
H        0.8896644417   -0.0455758619   -2.0641526245
H        1.2265067010    1.5393960812   -1.3352756915
H        2.5077350690    0.3415868059   -1.4537258218
H        1.5665891323    0.1873384743    2.2216777416
H        2.8927895950    0.5375404533    1.1049394092
H        1.5571718736    1.6818598202    1.2691804015
H        1.3667463433   -1.1640725042    0.1219041533
H       -0.6440541190   -0.5302494098    1.3538270159
H       -2.6136422244    0.0856764826   -1.1661414287
H       -0.5603589186    1.8811934104   -0.2026034161
H       -1.3722822904    1.5292643218    1.2010931019
20   
torsion grid (-15,)
C        1.3534462415    0.2565621201   -1.2659941509
C        1.8545582746    0.6332308624    1.1956019828
C        1.0398721828   -0.1699940919    0.1737597584
C       -0.4619326311   -0.0797924593    0.4983276586
C       -2.3235159545   -0.8369326571   -0.8607765202
N       -1.1006679794    1.2079502245    0.3391251875
O       -1.1007325530   -1.1000173778   -0.3295487026
F       -2.1968092605   -0.1789361589   -2.0733358354
F       -2.9146069820   -2.0350715413   -1.1356004087
H        0.7343457998   -0.2857555134   -1.9847897658
H        1.1951053764    1.3319533403   -1.4156178021
H        2.4042488572    0.0567321346   -1.4979053093
H        1.6451810153    0.3140033143    2.2233543146
H        2.9267337587    0.5023187224    1.0196954052
H        1.6397178044    1.7059949778    1.1234126141
H        1.3002153643   -1.2301099450    0.2779621003
H       -0.6210849902   -0.3885943944    1.5383389812
H       -2.9805279563   -0.2358395458   -0.2333757869
H       -0.7282889038    1.7310025130   -0.4498928032
H       -1.0094094958    1.7661630493    1.1816462998
20   
torsion grid (0,)
C        1.2826653106    0.2294366062   -1.2766600993
C        1.8670456537    0.6470574297    1.1583821884
C        1.0182587422   -0.1748150705    0.1790215108
C       -0.4688330301   -0.0870181128    0.5660187559
C       -2.2649318364   -0.8148627617   -0.9045937097
N       -1.1148772146    1.1958037136    0.4155989169
O       -1.1582182994   -1.1391160374   -0.1878153255
F       -1.9207659162   -0.2175720941   -2.1099390283
F       -2.8947859921   -1.9813841343   -1.2198060623
H        0.6625954846   -0.3425709252   -1.9700798468
H        1.0907373092    1.2965002259   -1.4459029131
H        2.3333643071    0.0539513389   -1.5283909461
H        1.6935839031    0.3456465029    2.1981968775
H        2.9326221823    0.5134440871    0.9478224617
H        1.6480504804    1.7181378725    1.0756722273
H        1.2867979030   -1.2320958695    0.2899649141
H       -0.5766270449   -0.3830754240    1.6148066916
H       -2.9591585279   -0.1420703294   -0.4028323817
H       -0.7280886520    1.7440818842   -0.3480046293
H       -1.0735867939    1.7353886715    1.2729276154
20   
torsion grid (15,)
C        1.2035404316    0.3210966612   -1.2894846906
C        1.8905964028    0.6183006677    1.1365772159
C        0.9903058245   -0.1476228692    0.1564224262
C       -0.4754518265   -0.0731675683    0.6149209376
C       -2.1707943320   -0.8563345313   -0.9852401419
N       -1.0998942455    1.2113889261    0.4704923759
O       -1.2185702171   -1.1521987146   -0.0733367333
F       -1.6781495640   -0.9846381785   -2.2786591980
F       -3.1699865197   -1.7861708716   -0.8796050289
H        0.5651875689   -0.2223946324   -1.9885105763
H        1.0098493800    1.3948211611   -1.4098712377
H        2.2459118833    0.1579221038   -1.5809487572
H        1.7597802631    0.2661819278    2.1662232883
H        2.9438989032    0.4857248971    0.8706709546
H        1.6805989949    1.6942086296    1.1203970327
H        1.2517458158   -1.2104199106    0.2052804123
H       -0.5326717998   -0.3914455000    1.6592221846
H       -2.5874521566    0.1448887837   -0.8884162083
H       -0.5457793681    1.8820709255   -0.0494704896
H       -1.4068174702    1.6126556665    1.3477234511
20   
torsion grid (30,)
C        1.1030923108    0.3543766598   -1.3084147308
C        1.9084600208    0.6237551650    1.0858561700
C        0.9661893560   -0.1367785732    0.1401347399
C       -0.4776609982   -0.1027636839    0.6702871919
C       -2.0346468149   -0.8317517416   -1.0689497651
N       -1.1003482689    1.1917702176    0.5456885247
O       -1.2741357420   -1.1444101385    0.0092272199
F       -1.6285601042   -1.5782695050   -2.1563256435
F       -3.3352052852   -1.2055192491   -0.8281330166
H        0.4962005564   -0.2385896542   -1.9963695598
H        0.8149517155    1.4061570960   -1.4168370352
H        2.1457360169    0.2693173094   -1.6310322661
H        1.8022267069    0.2836135270    2.1220657445
H        2.9504398051    0.4699278127    0.7889145403
H        1.7249991858    1.7050001118    1.0677605606
H        1.2452623324   -1.1959196655    0.1631908526
H       -0.4747207176   -0.4671583239    1.7031732962
H       -2.0198120596    0.2229448309   -1.3369123099
H       -0.4252606769    1.9427793842    0.4570531749
H       -1.7313593705    1.3963859940    1.3140095287
20   
torsion grid (45,)
C        1.0552409537    0.4015431757   -1.3190604787
C        1.9152621958    0.5601492137    1.0573353054
C        0.9195371645   -0.1355014937    0.1140143131
C       -0.5026105559   -0.0571234633    0.7004538117
C       -1.9780274571   -0.8683402364   -1.0532779100
N       -1.1073067318    1.2484688273    0.5517297524
O       -1.3874964924   -1.0814140234    0.1509041972
F       -1.4109459773   -1.6825568706   -2.0171624251
F       -3.2882071641   -1.2549193236   -0.9676342025
H        0.4376155757   -0.1529805516   -2.0276968008
H        0.7878298397    1.4615934117   -1.3871552314
H        2.0949227750    0.3059971280   -1.6485603890
H        1.8303456522    0.1863336000    2.0836662283
H        2.9421207535    0.3855847276    0.7219195028
H        1.7653707567    1.6465781575    1.0821476415
H        1.1570006940   -1.2050290679    0.1012437886
H       -0.4501364858   -0.3856860094    1.7446845819
H       -1.9331391281    0.1645140183   -1.3959484343
H       -0.4138287772    1.9893952260    0.5413084924
H       -1.7776996226    1.4382611277    1.2914754739
20   
torsion grid (60,)
C        1.0180618723    0.4841835468   -1.3238209262
C        1.9174949086    0.4614506543    1.0346450935
C        0.8629999117   -0.1251872904    0.0788511398
C       -0.5359236525    0.0160675543    0.7144350057
C       -1.9220036097   -0.9391441835   -1.0205418554
N       -1.1125448511    1.3338351459    0.5355281355
O       -1.5033295071   -0.9781281849    0.2717675954
F       -1.1806945868   -1.8079727299   -1.8037715996
F       -3.2047413127   -1.4013709585   -1.0587880130
H        0.3622608657    0.0170163807   -2.0596450271
H        0.8212833967    1.5612636978   -1.3260504160
H        2.0465754676    0.3392466227   -1.6700056383
H        1.8506448802    0.0175545547    2.0336970861
H        2.9251608006    0.2735149339    0.6517226231
H        1.8100474545    1.5480722466    1.1414105974
H        1.0360500260   -1.2045427522    0.0074189691
H       -0.4434202088   -0.2711601426    1.7684550487
H       -1.8819926934    0.0523812309   -1.4727343234
H       -0.4035616208    2.0605877502    0.5686925969
H       -1.8065195725    1.5271994967    1.2531211252
20   
torsion grid (75,)
C        0.9842227799    0.5349437078   -1.3341517431
C        1.9078716326    0.4023649397    1.0072106430
C        0.8170518026   -0.1134193818    0.0497808883
C       -0.5623969048    0.0734927127    0.7167930578
C       -1.8718420145   -0.9940501665   -1.0151778555
N       -1.0930335387    1.4170097160    0.5713888663
O       -1.6071083892   -0.8541421835    0.3099586343
F       -1.0291095791   -1.9249033192   -1.5990113299
F       -3.1316767748   -1.4980132061   -1.1293139490
H        0.3188172258    0.1077939475   -2.0855870012
H        0.8089840766    1.6147328134   -1.3014904092
H        2.0084937094    0.3765140392   -1.6868048002
H        1.8372428229   -0.0680454242    1.9936096175
H        2.9012623772    0.1849409788    0.6033006582
H        1.8466018701    1.4888208225    1.1465082430
H        0.9480713537   -1.1954014424   -0.0544863281
H       -0.4499037677   -0.2274240850    1.7656883262
H       -1.8030240914   -0.0673456326   -1.5877435950
H       -0.3638849227    2.1167335144    0.6829984533
H       -1.8107916994    1.5902652229    1.2709168407
20   
torsion grid (90,)
C        0.9561452927    0.5508831360   -1.3535262154
C        1.8965023023    0.3929073279    0.9792817611
C        0.7903593977   -0.1038528891    0.0278635728
C       -0.5767531291    0.1072464719    0.7125694550
C       -1.8452918464   -1.0235988593   -1.0402447156
N       -1.0342188264    1.4865457496    0.6558826239
O       -1.6939410264   -0.7146629862    0.2725029718
F       -0.9843071014   -2.0362651943   -1.4276300980
F       -3.1059637277   -1.5129744507   -1.1925490117
H        0.3444843298    0.0755565683   -2.1221881848
H        0.7021163682    1.6143000139   -1.3277734294
H        1.9980605866    0.4600261419   -1.6772714159
H        1.8018316940   -0.0459500977    1.9782177681
H        2.8806951297    0.1200188153    0.5868704985
H        1.8851939109    1.4845091672    1.0857943055
H        0.9094163758   -1.1865151483   -0.0781309798
H       -0.4683237417   -0.2598884277    1.7414721160
H       -1.7057706854   -0.1859731181   -1.7263743318
H       -0.2886750555    2.1253516525    0.9230412076
H       -1.8057122791    1.6172037006    1.3065793197
20   
torsion grid (105,)
C        0.9449794248    0.6127379348   -1.3617085986
C        1.8883319160    0.3676815156    0.9601160867
C        0.7691157556   -0.0809098982   -0.0011844278
C       -0.5892573268    0.1467041844    0.6947654656
C       -1.8255584050   -1.0902903493   -1.0441538970
N       -0.9827389976    1.5480988938    0.7029077140
O       -1.7551007624   -0.5803183541    0.2098842754
F       -0.9973917583   -2.1891055564   -1.2004899550
F       -3.0987213689   -1.5386809019   -1.2143387850
H        0.3196528558    0.1793321141   -2.1449648344
H        0.7096804457    1.6784128467   -1.2978098784
H        1.9833938890    0.5105101736   -1.6932424198
H        1.7814156903   -0.0868700164    1.9507715087
H        2.8640426525    0.0734432337    0.5620941978
H        1.9086261783    1.4570105351    1.0846415010
H        0.8702597689   -1.1617539413   -0.1341945916
H       -0.4951519490   -0.2736843813    1.7053648970
H       -1.5928192020   -0.3877087148   -1.8460630217
H       -0.2408405230    2.1203981625    1.1006712371
H       -1.8060703153    1.6598600931    1.2913207432
20   
torsion grid (120,)
C        0.9171185181    0.8153576727   -1.3366297184
C        1.8777082683    0.2502481893    0.9258891736
C        0.7249705379   -0.0189863954   -0.0588057131
C       -0.6206686597    0.2178452207    0.6606458670
C       -1.7205713476   -1.2736451446   -0.9551064800
N       -1.0023545337    1.6214694359    0.6258636453
O       -1.7841608746   -0.4981088123    0.1520711400
F       -1.1659003487   -2.5141632815   -0.6695457594
F       -2.9984486633   -1.5081669885   -1.3567691500
H        0.0692887632    0.7525562295   -2.0227028604
H        1.0466135055    1.8751343184   -1.1006296760
H        1.8123177567    0.4757307384   -1.8680029148
H        1.8039379404   -0.3830252867    1.8159478336
H        2.8405399135    0.0461152358    0.4474761801
H        1.8951585859    1.2968796746    1.2533118035
H        0.7701399278   -1.0832221545   -0.3106415739
H       -0.5298654322   -0.1841434328    1.6793646137
H       -1.1590083426   -0.8594791000   -1.7927709005
H       -0.2726571343    2.1871637564    1.0560769280
H       -1.8483104119    1.7493076983    1.1793447790
20   
torsion grid (135,)
C        0.8930677006    0.8213648505   -1.3570310410
C        1.8742409001    0.2703237538    0.9044865235
C        0.7209686005   -0.0101535193   -0.0755744147
C       -0.6243142699    0.2236478658    0.6419303199
C       -1.6975084942   -1.2847470256   -0.9634719594
N       -0.9377895394    1.6444943622    0.7070850105
O       -1.8039602142   -0.3665439209    0.0261417734
F       -1.2686936224   -2.5094393689   -0.4707306104
F       -2.9469108599   -1.4808966037   -1.4612601763
H        0.0350541347    0.7471073908   -2.0302394727
H        1.0105715119    1.8819749888   -1.1216272926
H        1.7840692754    0.4886898609   -1.9000268317
H        1.7897392364   -0.3358686776    1.8126826205
H        2.8346256767    0.0368368276    0.4346501248
H        1.9089753745    1.3259308374    1.1987562972
H        0.7750728751   -1.0762964122   -0.3207059971
H       -0.5738064972   -0.2629057918    1.6273155365
H       -1.0297373098   -1.0227318113   -1.7849839664
H       -0.2475319303    2.1155211155    1.2896105990
H       -1.8402845801    1.7585588515    1.1673801744
20   
torsion grid (150,)
C        0.8812081957    0.8207694582   -1.3820059583
C        1.8769256888    0.3033768926    0.8848968733
C        0.7300066204   -0.0019006890   -0.0937744115
C       -0.6197446112    0.2194232666    0.6165735462
C       -1.6959853472   -1.2823084709   -0.9661792490
N       -0.8753678856    1.6420330369    0.8027309980
O       -1.7947523056   -0.2390380307   -0.1058954603
F       -1.4241081308   -2.4650339901   -0.2941237543
F       -2.9123670268   -1.4297028365   -1.5515929835
H        0.0496826178    0.6718535004   -2.0765713355
H        0.9131917897    1.8889116717   -1.1554875915
H        1.8075229227    0.5449588471   -1.8969495328
H        1.7809104507   -0.2707205199    1.8132028230
H        2.8389229515    0.0449260567    0.4318748575
H        1.9175108201    1.3684651518    1.1396337966
H        0.7997857396   -1.0705618144   -0.3287377805
H       -0.6169963653   -0.3588869483    1.5535479088
H       -0.9413196627   -1.1823766685   -1.7477293773
H       -0.2396589395    2.0060473362    1.5100355119
H       -1.8195195537    1.7546323237    1.1709383368
20   
torsion grid (165,)
C        0.8890203674    0.8344174800   -1.4044534766
C        1.8826919922    0.3359546500    0.8724331562
C        0.7497057945    0.0126205397   -0.1160741550
C       -0.6112680926    0.2118510391    0.5771226506
C       -1.7168565406   -1.2861418622   -0.9557522630
N       -0.8371523423    1.6181785677    0.8828626710
O       -1.7604667557   -0.1326749823   -0.2407938633
F       -1.5971204961   -2.3893979986   -0.1261170696
F       -2.9045732440   -1.3974639704   -1.6033837433
H        0.0935405140    0.6174254698   -2.1234349872
H        0.8390381729    1.9032744498   -1.1837778870
H        1.8486539737    0.6205389205   -1.8867614424
H        1.7696763554   -0.2141011826    1.8138770428
H        2.8502779284    0.0600323685    0.4421626508
H        1.9234175500    1.4071023085    1.0982986115
H        0.8377905299   -1.0552811750   -0.3519206647
H       -0.6575684016   -0.4477234878    1.4579401831
H       -0.9106242975   -1.3528963207   -1.6898095227
H       -0.2343502851    1.8927695169    1.6556368366
H       -1.7979847543    1.7263832427    1.2063324897
20   
torsion grid (180,)
C        0.9110432523    0.8724768556   -1.4235795349
C        1.8995500806    0.3724317206    0.8616309842
C        0.7841967207    0.0390663157   -0.1425286299
C       -0.5920957406    0.1966252026    0.5294787425
C       -1.7603838041   -1.3125050176   -0.9219464565
N       -0.8311799592    1.5737941388    0.9350385972
O       -1.7022595881   -0.0749796973   -0.3653258165
F       -1.9120899267   -2.2944921522    0.0425599373
F       -2.8666495811   -1.3455005271   -1.7070800302
H        0.1449096089    0.6081042449   -2.1583184997
H        0.7967760170    1.9364155252   -1.2011918640
H        1.8922900110    0.7140467930   -1.8832068097
H        1.7798497965   -0.1801070758    1.8011929786
H        2.8761762650    0.1076606130    0.4450316754
H        1.9242355040    1.4436515159    1.0887599326
H        0.8965976160   -1.0238450646   -0.3934970404
H       -0.6703830296   -0.5260946963    1.3569181146
H       -0.8930118505   -1.5936542856   -1.5257061108
H       -0.2287063891    1.8016043098    1.7225527228
H       -1.7930170342    1.6501688550    1.2636043247
