31
0 1 C11H15NO3S
C                    -1.728409871673    -2.197909556335     6.146137397125
C                    -0.919598669135    -1.067053909471     6.304310545060
C                    -1.610585237193    -2.965813222613     4.986431649040
C                    -0.009052454623    -0.712570230077     5.307472397658
C                    -0.700624821853    -2.633414468350     3.975376086934
C                     0.096865994249    -1.491229460204     4.146829370897
C                    -3.432291051397    -1.849071700352     0.768395345991
C                    -3.940106917978    -2.950895404830    -0.171299071140
C                    -1.990764502496    -2.077045301498     1.226600367521
C                    -3.851950937195    -4.337848558883     0.472233668137
C                    -0.607543534766    -3.489886540253     2.733209199163
N                    -1.862072086847    -3.364353555973     1.947827979098
O                    -1.321949110163    -4.642266094445    -0.290218303389
O                    -2.088993360900    -5.902789726896     1.776924467923
O                     0.971065762006    -1.161585893548     3.133375789344
S                    -2.142722675763    -4.703952721110     0.932091648769
H                    -2.437837858057    -2.477789795527     6.919578855286
H                    -0.994903655441    -0.458576884939     7.201665520025
H                    -2.235108909751    -3.844589431307     4.844987406724
H                     0.618200994452     0.169655616060     5.428005366394
H                    -3.490656085628    -0.879836960288     0.261476635870
H                    -4.074212710657    -1.794867348399     1.655403488292
H                    -4.984192319254    -2.764118720502    -0.445188246416
H                    -3.357535261075    -2.954793382373    -1.098302702196
H                    -1.290340339349    -2.033117449265     0.380563072242
H                    -1.702947054944    -1.299098243353     1.937326007552
H                    -4.436006973216    -4.420711883832     1.391440687927
H                    -4.136597724237    -5.137703066706    -0.216505187968
H                     0.262724456900    -3.215504171816     2.129572373364
H                    -0.510527217147    -4.538324879179     3.021783274874
H                     1.471988444530    -0.372426803291     3.393218511199
