
  -OEChem-12122420523D

 31 32  0     1  0  0  0  0  0999 V2000
    4.5249    6.4077   13.2315 C   0  0  0  0  0  0  0  0  0  0  0  0
    4.3781    5.2445   12.4683 C   0  0  0  0  0  0  0  0  0  0  0  0
    4.2054    7.6430   12.6649 C   0  0  0  0  0  0  0  0  0  0  0  0
    3.9225    5.3233   11.1507 C   0  0  0  0  0  0  0  0  0  0  0  0
    3.7396    7.7460   11.3488 C   0  0  0  0  0  0  0  0  0  0  0  0
    3.6108    6.5702   10.5938 C   0  0  0  0  0  0  0  0  0  0  0  0
    5.0628    9.5020    8.0595 C   0  0  0  0  0  0  0  0  0  0  0  0
    4.8435   10.9800    7.6947 C   0  0  0  0  0  0  0  0  0  0  0  0
    5.5709    9.3231    9.4978 C   0  0  0  0  0  0  0  0  0  0  0  0
    3.8597   11.6846    8.6394 C   0  0  0  0  0  0  0  0  0  0  0  0
    3.4076    9.0988   10.7641 C   0  0  0  0  0  0  0  0  0  0  0  0
    4.6524    9.8704   10.5256 N   0  0  2  0  0  0  0  0  0  0  0  0
    3.3753   11.9553   11.2695 O   0  0  0  0  0  0  0  0  0  0  0  0
    5.7731   12.1492   10.4141 O   0  0  0  0  0  0  0  0  0  0  0  0
    3.1808    6.6903    9.2870 O   0  0  0  0  0  0  0  0  0  0  0  0
    4.4415   11.5396   10.3536 S   0  0  0  0  0  0  0  0  0  0  0  0
    4.8822    6.3510   14.2556 H   0  0  0  0  0  0  0  0  0  0  0  0
    4.6189    4.2740   12.8940 H   0  0  0  0  0  0  0  0  0  0  0  0
    4.3236    8.5570   13.2417 H   0  0  0  0  0  0  0  0  0  0  0  0
    3.8133    4.4186   10.5541 H   0  0  0  0  0  0  0  0  0  0  0  0
    4.1350    8.9351    7.9246 H   0  0  0  0  0  0  0  0  0  0  0  0
    5.7988    9.0662    7.3747 H   0  0  0  0  0  0  0  0  0  0  0  0
    5.7978   11.5159    7.7214 H   0  0  0  0  0  0  0  0  0  0  0  0
    4.4553   11.0620    6.6735 H   0  0  0  0  0  0  0  0  0  0  0  0
    5.7103    8.2656    9.7327 H   0  0  0  0  0  0  0  0  0  0  0  0
    6.5350    9.8193    9.6315 H   0  0  0  0  0  0  0  0  0  0  0  0
    3.7756   12.7552    8.4346 H   0  0  0  0  0  0  0  0  0  0  0  0
    2.8613   11.2382    8.6161 H   0  0  0  0  0  0  0  0  0  0  0  0
    2.8160    8.9784    9.8506 H   0  0  0  0  0  0  0  0  0  0  0  0
    2.8151    9.6726   11.4771 H   0  0  0  0  0  0  0  0  0  0  0  0
    3.1155    5.8044    8.8968 H   0  0  0  0  0  0  0  0  0  0  0  0
  1  2  1  0  0  0  0
  1  3  2  0  0  0  0
  1 17  1  0  0  0  0
  2  4  2  0  0  0  0
  2 18  1  0  0  0  0
  3  5  1  0  0  0  0
  3 19  1  0  0  0  0
  4  6  1  0  0  0  0
  4 20  1  0  0  0  0
  5  6  2  0  0  0  0
  5 11  1  0  0  0  0
  6 15  1  0  0  0  0
  7  8  1  0  0  0  0
  7  9  1  0  0  0  0
  7 21  1  0  0  0  0
  7 22  1  0  0  0  0
  8 10  1  0  0  0  0
  8 23  1  0  0  0  0
  8 24  1  0  0  0  0
  9 12  1  0  0  0  0
  9 25  1  0  0  0  0
  9 26  1  0  0  0  0
 10 16  1  0  0  0  0
 10 27  1  0  0  0  0
 10 28  1  0  0  0  0
 11 12  1  0  0  0  0
 11 29  1  0  0  0  0
 11 30  1  0  0  0  0
 12 16  1  0  0  0  0
 13 16  2  0  0  0  0
 14 16  2  0  0  0  0
 15 31  1  0  0  0  0
M  END
$$$$
