31
0 1 C11H15NO3S
C                     0.160141565449    -6.043870366259    -0.029336362160
C                     0.416519451891    -7.419418957656     0.006258298407
C                     0.833905992393    -5.254975711147    -0.963997594921
C                     1.331295570352    -7.990790944027    -0.877948146903
C                     1.757861959598    -5.806429652520    -1.861081969827
C                     2.006517896386    -7.195753716272    -1.815176608816
C                     0.081143604851    -5.211759189504    -5.851194208008
C                     1.003560708852    -5.403985303704    -7.062292535521
C                     0.777518668026    -4.515886236125    -4.680388015410
C                     2.246361773176    -6.227715916849    -6.710257761255
C                     2.456674201334    -4.939529868509    -2.875412678482
N                     1.968839775181    -5.270824494521    -4.242860270589
O                     3.655695445458    -4.111809497325    -5.912135149898
O                     4.162453788426    -6.346356283292    -4.815175695259
O                     2.890066627341    -7.840579627067    -2.629788985320
S                     3.184559084477    -5.408172090294    -5.403674607889
H                    -0.549164916556    -5.594685789423     0.659757788816
H                    -0.096003472438    -8.051905344915     0.726717131916
H                     0.649323562536    -4.182677353886    -0.998693887212
H                     1.544376135083    -9.055741072455    -0.859156111633
H                    -0.790106709055    -4.616734214799    -6.144191765982
H                    -0.285721064405    -6.185773500468    -5.508255365564
H                     0.468965226263    -5.921962145329    -7.865443092395
H                     1.319814912013    -4.433505504916    -7.458935990836
H                     1.046747591279    -3.480079441886    -4.934873918696
H                     0.105741354426    -4.488822287910    -3.818520754298
H                     2.004730716776    -7.222159886631    -6.328520227820
H                     2.943698690016    -6.313269261232    -7.547635648284
H                     2.282534099461    -3.878315355472    -2.668045026249
H                     3.538338545423    -5.094492514182    -2.845284201539
H                     3.293643473597    -7.258082250769    -3.304306061010
