31
0 1 C11H15NO3S
C                     2.110032113269     0.674214280491     4.603342634051
C                     1.505344283321     0.771978907603     5.858828959841
C                     1.456166204684    -0.028205034201     3.585190641506
C                     0.266646766011     0.167353552316     6.092677925597
C                     0.214945088882    -0.636824370361     3.792506265035
C                    -0.375527940499    -0.535802773936     5.066624851620
C                    -0.760961919628     0.534264281156     0.087959761873
C                    -1.750802449852    -0.193511681441    -0.836903416159
C                    -1.312628362694     0.707232832311     1.511371188409
C                    -2.145483668443    -1.578342252784    -0.306208599333
C                    -0.497941414538    -1.372257564239     2.685490734151
N                    -1.636798448373    -0.571998061221     2.180925492048
O                    -2.941915294023    -2.761258395968     1.964934770164
O                    -4.007406643735    -0.546075431830     1.267923260266
O                    -1.578228437350    -1.162288418629     5.247004841825
S                    -2.841185290117    -1.428905524257     1.365648363132
H                     3.074843244067     1.137389413759     4.418631386586
H                     1.995267229047     1.314945100522     6.662758841284
H                     1.918755025478    -0.109304510964     2.603383873316
H                    -0.199340843589     0.238147509280     7.074411048194
H                     0.188997609330    -0.014094851969     0.119396126751
H                    -0.537120594527     1.524253314380    -0.324530211938
H                    -2.658023309480     0.408044625945    -0.954446433111
H                    -1.314378394064    -0.318355724618    -1.834000029586
H                    -0.593971642175     1.225931857950     2.149571334849
H                    -2.226359229161     1.306275013477     1.495741812489
H                    -2.916571954925    -2.055453363148    -0.916840327632
H                    -1.290199228954    -2.255246483914    -0.220807769115
H                     0.220157161609    -1.610159625254     1.887660927128
H                    -0.913634879013    -2.308291223387     3.058746863967
H                    -1.882048865223    -1.024485211862     6.158021960553
