30
0 1 C11H15NO2S
C                    -0.187521718214    -3.153787292090     5.902403321697
C                    -1.478545114215    -2.751370772704     5.535775575662
C                     0.791172482540    -3.317355941450     4.918908774544
C                    -1.787900735712    -2.517427322357     4.195034128599
C                     0.478916689465    -3.079066252836     3.574894064802
C                    -0.810626507917    -2.684356559219     3.202717853379
C                    -0.008887589463     0.343503823784     0.648602817883
C                    -0.739866476504     0.576520933549    -0.684357565140
C                    -0.976387464376     0.049815001619     1.805114113652
C                    -1.618356299783    -0.613636010202    -1.094604579009
C                    -1.159779213757    -2.453031123162     1.747632323811
N                    -1.822395406194    -1.145328267860     1.577219259366
O                    -3.449373151054    -2.272074324506    -0.036593858268
O                    -3.614894750077     0.234418021761     0.425507886655
S                    -2.815503108267    -0.976616148307     0.220820400575
H                     0.052237146256    -3.334818392519     6.947019302503
H                    -2.243175258517    -2.620779060670     6.297352637339
H                     1.796646378680    -3.624524986837     5.195154629945
H                    -2.784105786083    -2.192825438658     3.906637787638
H                     1.245666421334    -3.202327807440     2.812440648622
H                     0.705744034563    -0.481893829869     0.541016492404
H                     0.578190821030     1.232981487958     0.901747002935
H                    -1.370829584828     1.468111872205    -0.610614069655
H                    -0.014512870215     0.759313776039    -1.484598732168
H                    -0.432584240111    -0.124593107344     2.736638659079
H                    -1.646116041946     0.897281324080     1.969039195613
H                    -2.204007588132    -0.410119318117    -1.994931582526
H                    -1.041652440257    -1.531132454074    -1.244667832187
H                    -0.253261122632    -2.540386733997     1.131721835873
H                    -1.863738735763    -3.214160982470     1.405787687545
