14   
torsion grid (-165,)
C        1.1571006905    0.9531898226   -1.8131741407
C       -0.1040847312    0.2710709339   -1.2855594696
N       -1.6642357725   -0.6160514682    1.1827251897
N       -0.7581865584    1.1306853791   -0.2778436283
N       -1.9200355162    0.5345195900    0.3517682234
H        1.6166063477    0.3555012593   -2.6067235894
H        0.9179799181    1.9426944782   -2.2135055312
H        1.9019965736    1.0792801205   -1.0183116125
H       -0.8171894207    0.1290619736   -2.1064226308
H        0.1572658877   -0.7335723284   -0.9080775606
H       -0.8943770511   -1.1901999659    0.8284257530
H       -1.4061488485   -0.2693011388    2.1038966210
H       -0.0865488872    1.2761408240    0.4766384191
H       -2.4751776765    0.1604840990   -0.4164704728
14   
torsion grid (-150,)
C        1.1614927361    0.9538779293   -1.8087903747
C       -0.1360307135    0.3012182966   -1.3357837619
N       -1.6462866446   -0.5822849638    1.2396887441
N       -0.7608631820    1.1203042523   -0.2742863000
N       -1.9397189080    0.4807378081    0.3123448291
H        1.5982943876    0.3887731472   -2.6382133581
H        0.9736029798    1.9781233693   -2.1436837733
H        1.9046396029    0.9908522324   -1.0031980825
H       -0.8451298641    0.2506843612   -2.1705120388
H        0.0668686626   -0.7385264289   -1.0203141956
H       -0.8131148376   -1.1153015674    0.9706716755
H       -1.4739972194   -0.1530907469    2.1459804341
H       -0.0812228398    1.1581666721    0.4869632510
H       -2.3835692048   -0.0100307828   -0.4635014783
14   
torsion grid (-135,)
C        1.1683804756    0.9698525822   -1.8244256917
C       -0.1485545507    0.3273112808   -1.3931391720
N       -1.6723081251   -0.5338855593    1.3211755829
N       -0.7331385771    1.0718946721   -0.2583962581
N       -1.9403042235    0.4040342248    0.2696385857
H        1.5752325708    0.4622353651   -2.7047177092
H        1.0156385238    2.0250770015   -2.0685107363
H        1.9198999510    0.9102636236   -1.0280419979
H       -0.8637662467    0.3746882835   -2.2228084275
H        0.0137521369   -0.7428845095   -1.1648308462
H       -0.7947306395   -1.0456835132    1.1750485796
H       -1.5985581524   -0.0095059586    2.1899251347
H       -0.0490545492    1.0023672778    0.4972925749
H       -2.2675236385   -0.1922611919   -0.4908440486
14   
torsion grid (-120,)
C        1.1794944373    1.0081463947   -1.8607146155
C       -0.1404401291    0.3492347165   -1.4647832063
N       -1.7538913497   -0.4597718983    1.4294603813
N       -0.6565287604    0.9461333529   -0.2242876387
N       -1.9008613637    0.2763554172    0.2241017279
H        1.5445997193    0.5982375879   -2.8077213928
H        1.0483477759    2.0879806830   -1.9739638427
H        1.9528057310    0.8362734599   -1.1025277684
H       -0.8836211346    0.5269287178   -2.2511224510
H       -0.0078347329   -0.7470276959   -1.3857398661
H       -0.8534264224   -0.9517095206    1.4844082247
H       -1.8105199116    0.1956112114    2.2055484168
H        0.0307249822    0.7765220286    0.5137707153
H       -2.1238838858   -0.4194108763   -0.4890631142
14   
torsion grid (-105,)
C        1.1827376922    1.0444691238   -1.8873226254
C       -0.1377571747    0.3697254798   -1.5215300883
N       -1.8354612088   -0.3646254090    1.5102268501
N       -0.5737535444    0.7852918016   -0.1905853741
N       -1.8303965511    0.1211958804    0.1895445570
H        1.4878033309    0.7649028262   -2.9006326527
H        1.0823348480    2.1324196108   -1.8397926872
H        1.9852875704    0.7448293860   -1.2029422888
H       -0.9153200935    0.6749130208   -2.2316450798
H       -0.0371877024   -0.7306261014   -1.6084487974
H       -0.9426447438   -0.8036610184    1.7715611077
H       -1.9983123387    0.4219493598    2.1350346228
H        0.1290088292    0.5359208548    0.5128857430
H       -1.9713739581   -0.6732012363   -0.4389877165
14   
torsion grid (-90,)
C        1.1797076200    1.0694216744   -1.8935376354
C       -0.1449395441    0.3906227317   -1.5520290200
N       -1.8948136117   -0.2863776931    1.5419632816
N       -0.5149960121    0.6552241136   -0.1669626364
N       -1.7638608108   -0.0112869441    0.1711360439
H        1.4375776870    0.8988155358   -2.9434572243
H        1.1134519658    2.1474222507   -1.7211202602
H        1.9990767192    0.6745698018   -1.2811803199
H       -0.9455165433    0.7905671973   -2.1843116755
H       -0.0773774034   -0.6947198524   -1.7683707725
H       -1.0206052145   -0.6444888941    1.9500810257
H       -2.1220099349    0.5870052387    2.0133720454
H        0.2133079522    0.3355350017    0.4841463109
H       -1.8340379140   -0.8888065832   -0.3523635927
14   
torsion grid (-75,)
C        1.1759580980    1.0858924872   -1.8921662997
C       -0.1554441440    0.4117389841   -1.5676309983
N       -1.9423820320   -0.2252815708    1.5498023816
N       -0.4675486518    0.5508557955   -0.1489820740
N       -1.7049961161   -0.1234605500    0.1659191753
H        1.3909349664    1.0118842181   -2.9627932558
H        1.1483296463    2.1437058210   -1.6148757791
H        2.0055466305    0.6126361156   -1.3533738691
H       -0.9689237420    0.8864783931   -2.1259792628
H       -0.1235354018   -0.6487256174   -1.8873901809
H       -1.0893259234   -0.4838596231    2.0625577836
H       -2.2218559033    0.6979495924    1.8766388783
H        0.2895017645    0.1685411724    0.4344876493
H       -1.7112942360   -1.0648516393   -0.2388485779
14   
torsion grid (-60,)
C        1.1695014020    1.1030187054   -1.8900992953
C       -0.1623124889    0.4255409334   -1.5732599247
N       -1.9839520323   -0.1670159541    1.5445331304
N       -0.4153039569    0.4479041414   -0.1331449871
N       -1.6508715967   -0.2200282648    0.1714122595
H        1.3421568382    1.1204354417   -2.9708068887
H        1.1749643468    2.1326190084   -1.5200914919
H        2.0099001378    0.5701848997   -1.4289472001
H       -0.9886903563    0.9587222265   -2.0531140981
H       -0.1623132018   -0.6022649691   -1.9833456728
H       -1.1566329400   -0.3228266726    2.1331338821
H       -2.3027279678    0.7819361695    1.7333710030
H        0.3621570790    0.0008547328    0.3713417329
H       -1.6109103078   -1.2055768193   -0.1036168788
14   
torsion grid (-45,)
C        1.1624694606    1.1180022709   -1.8844158843
C       -0.1698734972    0.4401452911   -1.5698614032
N       -2.0176691613   -0.1132899973    1.5277303345
N       -0.3590086675    0.3412289570   -0.1195760097
N       -1.5943341296   -0.3187193511    0.1873632521
H        1.2900935216    1.2270828860   -2.9660722833
H        1.2078217730    2.1108799822   -1.4266792447
H        2.0098923468    0.5311896275   -1.5092165490
H       -1.0040570816    1.0287632226   -1.9626687478
H       -0.2112441255   -0.5459996346   -2.0664519651
H       -1.2163778646   -0.1377818502    2.1678502788
H       -2.3897346733    0.8341629285    1.5712401432
H        0.4331228590   -0.1632351775    0.2963912998
H       -1.5161358051   -1.3289255764    0.0517323488
14   
torsion grid (-30,)
C        1.1539649664    1.1302545115   -1.8740021213
C       -0.1787314691    0.4547774590   -1.5557364206
N       -2.0406462222   -0.0622957004    1.4986852767
N       -0.3022297397    0.2367444045   -0.1082562568
N       -1.5402914441   -0.4141461910    0.2097308402
H        1.2361194811    1.3280847635   -2.9474869206
H        1.2446656741    2.0795191122   -1.3370331664
H        2.0032065523    0.4967135624   -1.5893985702
H       -1.0146672943    1.0928488961   -1.8566089594
H       -0.2692290960   -0.4836514332   -2.1288204479
H       -1.2634292268    0.0592272138    2.1556214973
H       -2.4713427717    0.8555788354    1.3980960173
H        0.4934675114   -0.3222209268    0.2146497527
H       -1.4258919659   -1.4279309282    0.2179250494
14   
torsion grid (-15,)
C        1.1445802735    1.1383400076   -1.8613351042
C       -0.1886860106    0.4712708183   -1.5287769498
N       -2.0552477543   -0.0162464368    1.4567610946
N       -0.2465147477    0.1439089119   -0.0955596982
N       -1.4893537231   -0.5024440549    0.2356008047
H        1.1801528876    1.4170099973   -2.9193561479
H        1.2879543293    2.0405316490   -1.2585999478
H        1.9890674345    0.4647538538   -1.6692935780
H       -1.0188348077    1.1527263794   -1.7371061256
H       -0.3369138053   -0.4175384780   -2.1632706558
H       -1.3023828393    0.2507525552    2.0980677794
H       -2.5452512062    0.8457360446    1.2223146700
H        0.5406911045   -0.4673649663    0.1321882619
H       -1.3342961800   -1.4979327024    0.3857311672
14   
torsion grid (0,)
C        1.1331535540    1.1438399831   -1.8475147849
C       -0.1993377330    0.4883536771   -1.4901396798
N       -2.0649273273    0.0273086915    1.3998813729
N       -0.1914686613    0.0624750624   -0.0806441202
N       -1.4403265910   -0.5838258962    0.2647866824
H        1.1219719684    1.4947267840   -2.8843820589
H        1.3344612442    1.9975929049   -1.1930178494
H        1.9663150659    0.4369835274   -1.7475413391
H       -1.0170954317    1.2064396392   -1.6068767407
H       -0.4103288827   -0.3505141083   -2.1716381374
H       -1.3395447593    0.4210479239    2.0066034826
H       -2.6006979647    0.8174595427    1.0443235529
H        0.5755012313   -0.5986952642    0.0502991139
H       -1.2427107575   -1.5396888888    0.5532260761
14   
torsion grid (15,)
C        1.1193744893    1.1474899003   -1.8330526623
C       -0.2095754443    0.5049852386   -1.4411780125
N       -2.0728258653    0.0676604748    1.3256462852
N       -0.1365243985   -0.0104477820   -0.0632833745
N       -1.3921166895   -0.6584002389    0.2967669754
H        1.0606904295    1.5639787036   -2.8437209529
H        1.3823810292    1.9522025037   -1.1395597736
H        1.9352071261    0.4140263868   -1.8250896273
H       -1.0082286344    1.2539488202   -1.4665362252
H       -0.4872397345   -0.2838365556   -2.1567618853
H       -1.3784091675    0.5622267721    1.8941839309
H       -2.6316934404    0.7805252486    0.8600646185
H        0.5993449849   -0.7172644367   -0.0297323914
H       -1.1554197291   -1.5535914568    0.7196186655
14   
torsion grid (30,)
C        1.1060876128    1.1462440210   -1.8203879497
C       -0.2195644462    0.5264724736   -1.3836428290
N       -2.0822317526    0.0949760121    1.2388324919
N       -0.0835108815   -0.0700188372   -0.0434695765
N       -1.3414416426   -0.7253709266    0.3321353840
H        1.0020089718    1.6231622448   -2.8001982142
H        1.4401213662    1.8995505323   -1.1003397684
H        1.8926606934    0.3862580054   -1.9045489273
H       -0.9875470992    1.3054867451   -1.3199811334
H       -0.5703802854   -0.2116704434   -2.1205664747
H       -1.4257386899    0.6752930621    1.7711155670
H       -2.6504689710    0.7242064078    0.6751348617
H        0.6154467531   -0.8123191642   -0.1091655001
H       -1.0704766735   -1.5387665538    0.8824476392
14   
torsion grid (45,)
C        1.0943045014    1.1409831013   -1.8099060101
C       -0.2272535827    0.5524845567   -1.3206798025
N       -2.0930237004    0.1073496660    1.1461892532
N       -0.0327901050   -0.1183664120   -0.0227649588
N       -1.2900150713   -0.7839997747    0.3706012608
H        0.9496739879    1.6755146475   -2.7541690305
H        1.5054736974    1.8392182508   -1.0745248784
H        1.8395409352    0.3555121380   -1.9849796962
H       -0.9531076420    1.3600387933   -1.1727093391
H       -0.6539992852   -0.1343171083   -2.0674713269
H       -1.4810487635    0.7641390390    1.6423005127
H       -2.6609169917    0.6471945030    0.4967622532
H        0.6224034878   -0.8860471446   -0.1891617765
H       -0.9942765125   -1.4962006770    1.0378791096
14   
torsion grid (60,)
C        1.0852834976    1.1244640132   -1.8117506007
C       -0.2316622981    0.5957431658   -1.2469722705
N       -2.1147011408    0.0881451518    1.0489372780
N        0.0178996744   -0.1426750458    0.0051344265
N       -1.2291273261   -0.8346692706    0.4158903839
H        0.9051953516    1.7075388265   -2.7204500258
H        1.5917416682    1.7647638007   -1.0831374379
H        1.7649193033    0.3044592339   -2.0733744452
H       -0.8906819273    1.4407376722   -1.0194659217
H       -0.7511293571   -0.0349724965   -1.9856879312
H       -1.5703841782    0.8187939024    1.5208187950
H       -2.6686172943    0.5329768714    0.3208260384
H        0.6336360340   -0.9162638968   -0.2606923767
H       -0.9174070518   -1.4255383492    1.1872896584
14   
torsion grid (75,)
C        1.0760542883    1.1055425559   -1.8162497012
C       -0.2279567950    0.6434625304   -1.1681092642
N       -2.1395995085    0.0527357884    0.9474075321
N        0.0701411884   -0.1612273735    0.0330538785
N       -1.1672074948   -0.8745502414    0.4693465020
H        0.8679566233    1.7475753802   -2.6779570829
H        1.6847979218    1.6694419668   -1.1028687133
H        1.6694534142    0.2546710538   -2.1717397570
H       -0.8079956707    1.5219197685   -0.8676064703
H       -0.8389078264    0.0749536850   -1.8888795558
H       -1.6781921179    0.8534438915    1.3931801479
H       -2.6633985639    0.3970354494    0.1466056948
H        0.6383763543   -0.9327255633   -0.3284039349
H       -0.8585568578   -1.3287753129    1.3295862949
14   
torsion grid (90,)
C        1.0665872256    1.0944603959   -1.8181125516
C       -0.2180941566    0.6792778990   -1.1016919498
N       -2.1547617082    0.0183727500    0.8645039280
N        0.1193051114   -0.1982680948    0.0362877455
N       -1.1115099636   -0.8975158184    0.5435758123
H        0.8411955802    1.7866459029   -2.6355362825
H        1.7536368400    1.5880333063   -1.1241382637
H        1.5823028331    0.2279519737   -2.2487303281
H       -0.7222043741    1.5759843593   -0.7293618809
H       -0.9035805430    0.1836303224   -1.8106587088
H       -1.7778095150    0.8858059720    1.2606987200
H       -2.6506837743    0.2505108994    0.0080024224
H        0.6088194746   -0.9739481130   -0.4175232681
H       -0.8082380746   -1.1974381758    1.4700501758
14   
torsion grid (105,)
C        1.0711038784    1.0838954525   -1.8226504044
C       -0.1910806220    0.7349602736   -1.0326801515
N       -2.1814034258   -0.0457647175    0.7941502776
N        0.1545677641   -0.2542551556   -0.0007746893
N       -1.0402993345   -0.8790628925    0.6710260255
H        0.8529837617    1.8537440177   -2.5697003974
H        1.8534564085    1.4558097593   -1.1545646801
H        1.4640854065    0.2078717563   -2.3520330802
H       -0.5714669248    1.6443195031   -0.5577487078
H       -0.9703403941    0.3762850873   -1.7273641857
H       -1.9415958699    0.9204335428    1.0312185834
H       -2.6855829332   -0.0455961188   -0.0878711226
H        0.5271557300   -1.0479099964   -0.5242186965
H       -0.7166184895   -0.9812269330    1.6305767993
14   
torsion grid (120,)
C        1.1411685267    0.9462403018   -1.8509256300
C        0.0754717018    0.1765533727   -1.0706039607
N       -1.8029428500   -0.7199342042    0.9733893029
N       -0.7083266329    1.1013761270   -0.2663939995
N       -1.7930127509    0.6122817728    0.5091940837
H        1.7388464840    0.2632220412   -2.4628612894
H        0.6796570085    1.6922240974   -2.5044762221
H        1.8258958167    1.4663627650   -1.1703226921
H       -0.6015560160   -0.3262024567   -1.7744024840
H        0.5670138694   -0.6149870102   -0.4767814593
H       -1.4861845469   -1.3851884079    0.2641708680
H       -1.1803324510   -0.7918313957    1.7762358359
H       -0.1596997835    1.7528230312    0.2877165046
H       -2.6710334207    0.8505635443    0.0634267123
14   
torsion grid (135,)
C        1.1377676768    0.9506474159   -1.8528414471
C        0.0532259023    0.1879171795   -1.0920624181
N       -1.7913940074   -0.7048432195    0.9967192405
N       -0.7063374641    1.1132406516   -0.2563505852
N       -1.8137571506    0.6195339085    0.4861693428
H        1.7106857842    0.2714329930   -2.4922305016
H        0.6953602478    1.7326901159   -2.4766156196
H        1.8422175392    1.4262864613   -1.1599986459
H       -0.6429780742   -0.2729850155   -1.8051414045
H        0.5241913784   -0.6337910260   -0.5239056857
H       -1.3911997504   -1.3725168743    0.3334344706
H       -1.2172052652   -0.7136076843    1.8377411567
H       -0.1181828001    1.6654036761    0.3629640376
H       -2.6574290612    0.7540949967   -0.0605163698
14   
torsion grid (150,)
C        1.1379311101    0.9553256481   -1.8515986947
C        0.0247907551    0.2011669200   -1.1247404268
N       -1.7749107883   -0.6869240623    1.0306944679
N       -0.7071470715    1.1212645993   -0.2508148321
N       -1.8368850236    0.6202000584    0.4581166712
H        1.6841045297    0.2851064130   -2.5231311152
H        0.7254984961    1.7817930029   -2.4373971460
H        1.8603473978    1.3714824811   -1.1393261151
H       -0.6885520461   -0.2028995466   -1.8545448852
H        0.4651726732   -0.6595354228   -0.5913760625
H       -1.2855677137   -1.3532541410    0.4286868218
H       -1.2612881744   -0.6200648323    1.9073730271
H       -0.0888190421    1.5700801814    0.4216115605
H       -2.6297101470    0.6397622796   -0.1761877007
14   
torsion grid (165,)
C        1.1420273856    0.9599757475   -1.8453877027
C       -0.0098288381    0.2180946184   -1.1681451737
N       -1.7499452831   -0.6674287722    1.0727053001
N       -0.7156982135    1.1269290406   -0.2535678489
N       -1.8629030980    0.6085304257    0.4256295844
H        1.6588564734    0.3060223481   -2.5550746600
H        0.7718300504    1.8386383589   -2.3812813027
H        1.8799998088    1.2982787460   -1.1082806851
H       -0.7323870253   -0.1170982331   -1.9227454346
H        0.3883559675   -0.6866826062   -0.6764791489
H       -1.1663964707   -1.3216904112    0.5463511480
H       -1.3127853795   -0.5143264055    1.9792142969
H       -0.0751802447    1.4692244433    0.4609782240
H       -2.5909801774    0.5050362785   -0.2765510264
14   
torsion grid (180,)
C        1.1492675002    0.9596825689   -1.8324001120
C       -0.0546003868    0.2414591604   -1.2240011833
N       -1.7109271048   -0.6449343600    1.1242079217
N       -0.7326215627    1.1299591896   -0.2635402023
N       -1.8909795513    0.5803212520    0.3904583311
H        1.6383954846    0.3282041229   -2.5809107993
H        0.8383161591    1.8936297965   -2.3092832277
H        1.8939386838    1.2022214305   -1.0648913228
H       -0.7782337848   -0.0028404766   -2.0112468184
H        0.2823311875   -0.7148900206   -0.7867742284
H       -1.0280102433   -1.2671711204    0.6855618834
H       -1.3658787705   -0.3960859388    2.0487205361
H       -0.0756829198    1.3697018587    0.4786093905
H       -2.5403497359    0.3442461156   -0.3571445982
