21   
torsion grid (-165,)
C        1.8526118879   -0.8542427217    1.2065659117
C        0.5539013571   -0.1316825488    1.5767102946
C        0.0028783366    0.7841794016    0.4612309210
H        0.7698878582    1.5421056155    0.2565771281
C       -1.2635818540    1.5161452184    0.9422221471
C       -0.2423814169    0.0382660976   -0.8400881908
C       -1.3161807951   -1.0263430221   -0.8468877409
C        0.4728334746    0.3104334158   -1.9406156456
H        2.2285630998   -1.4431357871    2.0502273666
H        2.6328107310   -0.1384657370    0.9223642189
H        1.7074319668   -1.5301360926    0.3582676206
H       -0.2102456185   -0.8654547124    1.8628072352
H        0.7211867476    0.4882356004    2.4666739486
H       -1.6559151965    2.1792248923    0.1640850613
H       -2.0554314196    0.8100247790    1.2152917830
H       -1.0440277531    2.1227513482    1.8278231067
H       -1.2318979704   -1.6684140689   -1.7277567630
H       -2.3180071660   -0.5808133858   -0.8408705863
H       -1.2508009007   -1.6684441195    0.0385552870
H        0.3128703671   -0.2247363108   -2.8745672655
H        1.2414534094    1.0805266232   -1.9430201402
21   
torsion grid (-150,)
C        1.8979176941   -0.8449432110    1.1644887007
C        0.5922425009   -0.1308835905    1.5265463572
C        0.0425924198    0.7824547712    0.4082340628
H        0.8117224715    1.5373273196    0.2004402387
C       -1.2233579616    1.5186015122    0.8840905280
C       -0.2071639824    0.0315068895   -0.8884442379
C       -1.3028382866   -1.0154043583   -0.8959823459
C        0.5221216850    0.2780792227   -1.9855564992
H        2.2691438525   -1.4360730501    2.0086868777
H        2.6771671649   -0.1238833703    0.8910873785
H        1.7631922258   -1.5172142833    0.3117421657
H       -0.1681123581   -0.8703981317    1.8079347543
H        0.7497608372    0.4899471653    2.4177097242
H       -1.6019170170    2.1928555071    0.1087752726
H       -2.0238278864    0.8151864339    1.1388476603
H       -1.0103615826    2.1136578183    1.7791280330
H       -1.0808112162   -1.8168541287   -1.6060636171
H       -2.2706013862   -0.5750608512   -1.1632800231
H       -1.4264516828   -1.4787044507    0.0880077378
H        0.3618873418   -0.2669261941   -2.9140338766
H        1.3021501698    1.0364684664   -1.9911633876
21   
torsion grid (-135,)
C        1.8982394039   -0.8376151782    1.1656485569
C        0.5972725896   -0.1243394040    1.5462391323
C        0.0465149284    0.8073272277    0.4442318249
H        0.8191100568    1.5593948286    0.2393019333
C       -1.2106562729    1.5483288075    0.9359001842
C       -0.2186859135    0.0739119363   -0.8588355069
C       -1.2912940651   -1.0016627439   -0.8627431297
C        0.4750725163    0.3586204838   -1.9694810271
H        2.2674483988   -1.4503705526    1.9951806713
H        2.6813370816   -0.1151555135    0.9074573445
H        1.7579471935   -1.4893659601    0.2979100944
H       -0.1644605106   -0.8657525427    1.8190061119
H        0.7618103001    0.4812711589    2.4465686714
H       -1.5767852040    2.2469927785    0.1765666424
H       -2.0225454644    0.8510668394    1.1706176441
H       -0.9916834498    2.1174103573    1.8463758221
H       -0.9490385549   -1.8997529251   -1.3856420796
H       -2.2044696727   -0.6489585949   -1.3550493223
H       -1.5700710232   -1.3053010022    0.1499330732
H        0.2996560302   -0.1694398460   -2.9052868082
H        1.2407034598    1.1313572390   -1.9793217455
21   
torsion grid (-120,)
C        1.9585873776   -0.7948953475    1.1776658102
C        0.6499657078   -0.1136412628    1.5901383858
C        0.0668061710    0.8226222843    0.5098812685
H        0.8261612153    1.5852233636    0.2946562174
C       -1.1870186896    1.5478130253    1.0330660078
C       -0.2183977549    0.0972322132   -0.7935125536
C       -1.2273589672   -1.0401365864   -0.7708877349
C        0.3957868130    0.4483941798   -1.9315565210
H        2.3518184207   -1.4164090488    1.9894221631
H        2.7239917121   -0.0529553162    0.9218934651
H        1.8177865167   -1.4329576562    0.2996575065
H       -0.0935652566   -0.8745729119    1.8594815127
H        0.8161151622    0.4790371424    2.4987575365
H       -1.5782357188    2.2439232141    0.2842186205
H       -1.9861080792    0.8422238502    1.2860437881
H       -0.9517565237    2.1168283151    1.9395692556
H       -0.7662716196   -1.9812409296   -1.0888533145
H       -2.0625691637   -0.8393508163   -1.4498231256
H       -1.6480428181   -1.2027245583    0.2242550838
H        0.1918801749   -0.0597125764   -2.8727595652
H        1.1235614931    1.2564206025   -1.9590465649
21   
torsion grid (-105,)
C        1.7007747545   -0.7030389698    1.5999518613
C        0.3695275645    0.0525756163    1.6639089850
C        0.0251990585    0.8138330080    0.3662857815
H        0.8487308535    1.5111612808    0.1659608724
C       -1.2566399799    1.6489894622    0.5437944946
C       -0.0799580643   -0.1105904856   -0.8345521452
C       -1.0891186586   -1.2438594220   -0.7713980614
C        0.6830193079    0.0730940851   -1.9207794734
H        1.9153847422   -1.2052971316    2.5494186403
H        2.5304720249   -0.0189621020    1.3871586722
H        1.6933463553   -1.4609072454    0.8101620200
H       -0.4412359342   -0.6465673647    1.9054140021
H        0.3987984630    0.7765529777    2.4881676454
H       -1.4844572856    2.2148337824   -0.3650687985
H       -2.1228434540    1.0189420743    0.7739253377
H       -1.1391351202    2.3595887852    1.3696944433
H       -0.5876779604   -2.2042371310   -0.6033062223
H       -1.6371266395   -1.3330094233   -1.7144420747
H       -1.8220800980   -1.1089228093    0.0275444191
H        0.5964550003   -0.5675902484   -2.7967640995
H        1.4219827719    0.8700577355   -1.9680976145
21   
torsion grid (-90,)
C        1.6457714008   -0.7451884431    1.5555924176
C        0.3275547542    0.0319313736    1.6321583646
C        0.0004385804    0.8247599182    0.3495407924
H        0.8395135457    1.5064182612    0.1597294274
C       -1.2604393250    1.6876249101    0.5457153204
C       -0.1296643412   -0.0755321062   -0.8679352229
C       -1.1317089056   -1.2100454785   -0.7996553547
C        0.6062488311    0.1337390430   -1.9682943630
H        1.8455809326   -1.2773091764    2.4919205270
H        2.4884204480   -0.0699002944    1.3671835006
H        1.6314378911   -1.4807664393    0.7449591477
H       -0.4969358203   -0.6569499980    1.8560931508
H        0.3677807374    0.7375158679    2.4716838520
H       -1.4829597370    2.2673214964   -0.3556371073
H       -2.1388797058    1.0760381622    0.7787945626
H       -1.1185484649    2.3873608957    1.3770128298
H       -0.6635547724   -2.1193726225   -0.4025302670
H       -1.5111040902   -1.4574104132   -1.7954200114
H       -1.9873525993   -0.9740478304   -0.1610103773
H        0.4969250845   -0.4850382375   -2.8570375275
H        1.3454238671    0.9307740422   -2.0142947657
21   
torsion grid (-75,)
C        1.6502259759   -0.7623410169    1.5389104185
C        0.3351438589    0.0187295821    1.6262235557
C       -0.0023672457    0.8114598417    0.3461983623
H        0.8315158892    1.4992300998    0.1553834745
C       -1.2676097463    1.6656904522    0.5532317221
C       -0.1296689427   -0.0844115565   -0.8756580646
C       -1.1296235502   -1.2170117441   -0.8136034584
C        0.6139083550    0.1269574485   -1.9706793140
H        1.8604404591   -1.2878474187    2.4766935760
H        2.4918819403   -0.0903969347    1.3348187246
H        1.6245797928   -1.5037926454    0.7338841422
H       -0.4899726374   -0.6660815673    1.8599421120
H        0.3857336692    0.7261583687    2.4636044443
H       -1.5119281937    2.2320894013   -0.3510374438
H       -2.1353545923    1.0487357768    0.8106954273
H       -1.1173803660    2.3775150872    1.3726258256
H       -0.7559456747   -2.0356667030   -0.1860325841
H       -1.3186766688   -1.6293500516   -1.8086244906
H       -2.0874248737   -0.8972616390   -0.3905324743
H        0.5135507582   -0.4923059794   -2.8598532684
H        1.3494113311    0.9277672518   -2.0121649582
21   
torsion grid (-60,)
C        1.6787229240   -0.7443455419    1.4940087509
C        0.3682751580    0.0372806986    1.6287794810
C       -0.0181796092    0.8321615059    0.3630455446
H        0.7952514766    1.5411882987    0.1621857416
C       -1.2985864345    1.6519599122    0.6103484447
C       -0.1476940379   -0.0522668997   -0.8670650241
C       -1.1778163796   -1.1569110199   -0.8325495625
C        0.6257416124    0.1433710623   -1.9443511187
H        1.9310592896   -1.2547181534    2.4297843957
H        2.5097228236   -0.0755893677    1.2413854629
H        1.6170739957   -1.4981140002    0.7026756467
H       -0.4473176798   -0.6465876654    1.8959881347
H        0.4498688744    0.7466112356    2.4620938399
H       -1.5832632575    2.2175974016   -0.2827846931
H       -2.1414958026    1.0095110044    0.8873119697
H       -1.1451281422    2.3628164268    1.4298942421
H       -0.9790599614   -1.8619988557   -0.0167439970
H       -1.1859721196   -1.7195973491   -1.7697978177
H       -2.1860526287   -0.7598846605   -0.6674775364
H        0.5371972207   -0.4775471678   -2.8335411929
H        1.3734491895    0.9334199547   -1.9714486786
21   
torsion grid (-45,)
C        1.6988859100   -0.7545779079    1.4510856340
C        0.3868811917    0.0188861975    1.6127763473
C       -0.0323965419    0.8167320795    0.3580630468
H        0.7672139272    1.5398420968    0.1522453325
C       -1.3233567279    1.6103998943    0.6313170822
C       -0.1649892516   -0.0608323368   -0.8757794178
C       -1.2526890693   -1.1107680696   -0.8760054291
C        0.6568625157    0.0884016810   -1.9241746949
H        1.9774788381   -1.2548941058    2.3848772257
H        2.5189549192   -0.0825480331    1.1723957488
H        1.6218862511   -1.5150578134    0.6679728806
H       -0.4177362988   -0.6709228895    1.8973442690
H        0.4807056344    0.7282721180    2.4448109856
H       -1.6240181550    2.1900183464   -0.2477361617
H       -2.1531438890    0.9469814131    0.8987010754
H       -1.1772293647    2.3065343782    1.4646852966
H       -1.2870768822   -1.6597043202    0.0713708628
H       -1.1145847405   -1.8291279277   -1.6882023524
H       -2.2401067616   -0.6493689838   -1.0008828146
H        0.5776963160   -0.5413030528   -2.8081758893
H        1.4353257036    0.8484932427   -1.9326030289
21   
torsion grid (-30,)
C        1.6919153888   -0.6874002541    1.5084421159
C        0.3619829480    0.0410073294    1.7239317888
C       -0.1099902622    0.8642746915    0.5047646433
H        0.6703683164    1.6069160521    0.2948152217
C       -1.4072806087    1.6252175190    0.8351497137
C       -0.2667784153    0.0166547842   -0.7460813224
C       -1.3564930944   -1.0356007754   -0.7504222712
C        0.5355733324    0.1873333444   -1.8060361523
H        2.0041987037   -1.2116622172    2.4181366037
H        2.4865472184    0.0177154802    1.2377430563
H        1.6194751332   -1.4217803115    0.7005472023
H       -0.4141587768   -0.6817941150    2.0056123451
H        0.4544826086    0.7274757780    2.5751826347
H       -1.7351891431    2.2327055368   -0.0148390129
H       -2.2209567881    0.9377427654    1.0916126328
H       -1.2562828211    2.2911652423    1.6920219959
H       -1.5545151809   -1.4265755518    0.2521691976
H       -1.1074546632   -1.8708765549   -1.4101174822
H       -2.3032785901   -0.6059979692   -1.1015040689
H        0.4425664058   -0.4272591681   -2.6995670485
H        1.3103717006    0.9509972644   -1.8154083710
21   
torsion grid (-15,)
C        1.7513829026   -0.7216099474    1.4211341977
C        0.4342611129    0.0389617713    1.6023871814
C        0.0095144529    0.8617352653    0.3661826549
H        0.8146658025    1.5789815237    0.1617781357
C       -1.2708882425    1.6651380739    0.6603349337
C       -0.1493219294    0.0035385201   -0.8766103116
C       -1.2437585594   -1.0494071951   -0.8767206338
C        0.6542924314    0.1621032265   -1.9372614197
H        2.0315018488   -1.2468509541    2.3406754290
H        2.5679992977   -0.0371101436    1.1633486126
H        1.6793602924   -1.4597906109    0.6165777284
H       -0.3642166346   -0.6641669403    1.8713236879
H        0.5238857018    0.7294551218    2.4507111879
H       -1.5527510385    2.2832621486   -0.1982991715
H       -2.1151170286    1.0061314720    0.8916572059
H       -1.1227219850    2.3251518638    1.5223934386
H       -1.6307616730   -1.2446855800    0.1267445808
H       -0.8908488435   -1.9945881310   -1.2990356097
H       -2.0979744493   -0.7181380465   -1.4791575686
H        0.5558424954   -0.4565006970   -2.8277644709
H        1.4357680056    0.9187334967   -1.9505582187
21   
torsion grid (0,)
C        1.7364982749   -0.8131979431    1.3859475756
C        0.4273528588   -0.0318044072    1.5352460690
C        0.0401153005    0.7816930670    0.2814855888
H        0.8632014283    1.4784833951    0.0777344486
C       -1.2259700029    1.6189218484    0.5417944242
C       -0.1193447623   -0.0921847099   -0.9502909420
C       -1.1877843091   -1.1738069666   -0.9241297795
C        0.6539683826    0.0837631726   -2.0304370747
H        1.9877333695   -1.3411780964    2.3122170135
H        2.5692721102   -0.1420393580    1.1455870105
H        1.6715712146   -1.5521521089    0.5812265281
H       -0.3865836653   -0.7209620986    1.7940272727
H        0.5108321694    0.6649533011    2.3790632433
H       -1.4789477515    2.2287577132   -0.3314187665
H       -2.0897648910    0.9850095653    0.7707356819
H       -1.0747393109    2.2893133437    1.3953589748
H       -1.7366304297   -1.1925712453    0.0204303547
H       -0.7459575250   -2.1660779837   -1.0640245470
H       -1.9195637624   -1.0249284193   -1.7248258335
H        0.5419371311   -0.5320874050   -2.9213851737
H        1.4252325169    0.8503557015   -2.0589358162
21   
torsion grid (15,)
C        1.7683164364   -0.8116223843    1.4091061005
C        0.4511438132   -0.0426056164    1.5539216904
C        0.0680810284    0.7732590349    0.3010805935
H        0.8933304430    1.4672321032    0.0962477397
C       -1.1938612542    1.6172429492    0.5603905893
C       -0.0959271940   -0.1013106148   -0.9301644359
C       -1.1172605670   -1.2235430636   -0.8724330435
C        0.6261859738    0.1171383024   -2.0377316757
H        2.0119480784   -1.3537294708    2.3291954151
H        2.5987364120   -0.1300075139    1.1913377608
H        1.7203426192   -1.5374561621    0.5911338989
H       -0.3594200426   -0.7404731446    1.7997973964
H        0.5220956505    0.6480569441    2.4038243815
H       -1.4480774299    2.2211311379   -0.3164138851
H       -2.0595930237    0.9898752761    0.7993242911
H       -1.0345105596    2.2933705431    1.4079322305
H       -1.8081273367   -1.1132863537   -0.0327327031
H       -0.6179557236   -2.1906970905   -0.7364082814
H       -1.7019312681   -1.2829211960   -1.7946788003
H        0.4964113852   -0.4864135338   -2.9344861994
H        1.3736416554    0.9063132078   -2.0825893591
21   
torsion grid (30,)
C        1.6460981390   -0.8997347287    1.3369466640
C        0.3582718670   -0.0828943993    1.4845907855
C        0.0258675563    0.7782847441    0.2482219216
H        0.8832635869    1.4390532102    0.0666403161
C       -1.1983669080    1.6736820305    0.5173391834
C       -0.1663735473   -0.0593136730   -1.0053242342
C       -1.2036757087   -1.1621412138   -0.9617484767
C        0.5467233567    0.1780383045   -2.1150520900
H        1.8512631334   -1.4809887280    2.2423888141
H        2.5066363046   -0.2452030373    1.1563793183
H        1.5853528528   -1.5961334663    0.4944671623
H       -0.4836690201   -0.7528139820    1.7009946900
H        0.4453109846    0.5821444405    2.3531595942
H       -1.4229624729    2.3017227500   -0.3504706056
H       -2.0917374563    1.0823488813    0.7457676162
H       -1.0107861367    2.3288508117    1.3754490897
H       -2.0284989093   -0.9263908146   -0.2828866740
H       -0.7575713732   -2.0920525041   -0.5858929117
H       -1.6133100706   -1.3697526360   -1.9536736766
H        0.3932704498   -0.3940549309   -3.0281904331
H        1.3105211701    0.9523196906   -2.1448815736
21   
torsion grid (45,)
C        1.6506275665   -0.9147317008    1.3176633476
C        0.3673925622   -0.0935185306    1.4790580012
C        0.0220144535    0.7677353216    0.2462461218
H        0.8733303857    1.4359222649    0.0630416582
C       -1.2072274354    1.6525866190    0.5282053876
C       -0.1682604560   -0.0653806032   -1.0113711172
C       -1.2047461450   -1.1652106494   -0.9737332170
C        0.5536114039    0.1719598100   -2.1156159074
H        1.8688979019   -1.4886233820    2.2247405492
H        2.5094814218   -0.2636458693    1.1176785174
H        1.5753593028   -1.6180280880    0.4820998822
H       -0.4747094690   -0.7591213295    1.7076140958
H        0.4674384313    0.5733361678    2.3447997127
H       -1.4569416990    2.2675897682   -0.3422019228
H       -2.0880809327    1.0532811026    0.7828074622
H       -1.0102871910    2.3207363526    1.3740464109
H       -2.1401233989   -0.8288512038   -0.5140975252
H       -0.8515717145   -2.0119124447   -0.3715805885
H       -1.4266084327   -1.5392108217   -1.9765956540
H        0.4090287819   -0.4016700460   -3.0289711197
H        1.3147468859    0.9491485803   -2.1408886475
21   
torsion grid (60,)
C        1.6811763385   -0.8922137306    1.2722141812
C        0.4018865946   -0.0759626143    1.4807192682
C        0.0062201357    0.7879074900    0.2638894903
H        0.8361948990    1.4799876098    0.0718120904
C       -1.2399681939    1.6342538621    0.5852556584
C       -0.1854584506   -0.0344977919   -1.0006185754
C       -1.2542945515   -1.1022551372   -0.9886721755
C        0.5685115500    0.1820071614   -2.0876637914
H        1.9434862631   -1.4513744004    2.1768512630
H        2.5262496023   -0.2397775246    1.0236132066
H        1.5714966618   -1.6077570531    0.4511698277
H       -0.4280650270   -0.7448419015    1.7415568797
H        0.5306777713    0.5917954502    2.3419634899
H       -1.5310542338    2.2491005913   -0.2726161448
H       -2.0949241740    1.0056582479    0.8570514705
H       -1.0414022107    2.3013947281    1.4314273271
H       -2.2453598789   -0.6749792045   -0.7970961780
H       -1.0707344558   -1.8425059106   -0.2010576553
H       -1.2950721940   -1.6309399629   -1.9447354531
H        0.4365579436   -0.3951970044   -3.0006059016
H        1.3430943782    0.9461134669   -2.0992550203
21   
torsion grid (75,)
C        1.6983144659   -0.9029225563    1.2303735983
C        0.4174988257   -0.0959136196    1.4628168003
C       -0.0077947294    0.7714776217    0.2572111912
H        0.8104168534    1.4761865887    0.0608381566
C       -1.2631148117    1.5938753440    0.6019192858
C       -0.2048216939   -0.0448977201   -1.0094933668
C       -1.3306802043   -1.0543014216   -1.0259273332
C        0.5945048357    0.1211445693   -2.0725856597
H        1.9842983598   -1.4542231850    2.1326954603
H        2.5328436530   -0.2455446310    0.9597472353
H        1.5755847476   -1.6238095326    0.4162640637
H       -0.4019194507   -0.7718521766    1.7382761972
H        0.5566997276    0.5713210917    2.3228943368
H       -1.5665396777    2.2233446889   -0.2411806001
H       -2.1077942858    0.9462441548    0.8612696810
H       -1.0716788977    2.2453215039    1.4618212762
H       -2.3027670171   -0.5577067171   -1.1322597354
H       -1.3667231083   -1.6423948776   -0.1027908385
H       -1.2248166203   -1.7470398694   -1.8654126843
H        0.4695935225   -0.4660788354   -2.9802382925
H        1.3994339934    0.8531893556   -2.0697263323
21   
torsion grid (90,)
C        1.7138354620   -0.8784663198    1.2419742193
C        0.4213087514   -0.0986542559    1.5009518243
C       -0.0299391196    0.7842249201    0.3161327522
H        0.7794327102    1.4987189227    0.1186484727
C       -1.2882262323    1.5892636803    0.6897438957
C       -0.2413427656   -0.0147749436   -0.9583780123
C       -1.3757941388   -1.0193223449   -0.9789986627
C        0.5517794353    0.1559215254   -2.0251629433
H        2.0153735445   -1.4444506022    2.1300372789
H        2.5353867410   -0.2012849492    0.9804804184
H        1.5968084942   -1.5831497996    0.4131209771
H       -0.3828938574   -0.7947503218    1.7710344120
H        0.5565218123    0.5546849079    2.3723054236
H       -1.5971109042    2.2419823652   -0.1334130770
H       -2.1292339245    0.9294196113    0.9300396074
H       -1.0988290206    2.2154281397    1.5687351294
H       -2.3032890564   -0.5533044334   -1.3332322026
H       -1.5758089589   -1.4418602671    0.0097823556
H       -1.1543113729   -1.8455035705   -1.6610021125
H        0.4192454017   -0.4246880569   -2.9362774355
H        1.3585095298    0.8858115552   -2.0225338776
21   
torsion grid (105,)
C        1.7473342808   -0.8907574780    1.1965002196
C        0.4625439109   -0.0939191919    1.4424581180
C        0.0344529227    0.7903147110    0.2506347630
H        0.8569125148    1.4898529549    0.0538680310
C       -1.2123313558    1.6202461374    0.6085058467
C       -0.1827710626   -0.0119474103   -1.0203590853
C       -1.3074066435   -1.0328855919   -1.0316519644
C        0.5951450649    0.1679281167   -2.0966097228
H        2.0289342096   -1.4661742783    2.0850371314
H        2.5819027615   -0.2240539029    0.9498338750
H        1.6312159128   -1.5891289897    0.3620939205
H       -0.3526483775   -0.7795078075    1.7065834806
H        0.5983288788    0.5596690994    2.3135692111
H       -1.4904826158    2.2859912204   -0.2150021891
H       -2.0731203850    0.9786547444    0.8273301895
H       -1.0252929259    2.2346797289    1.4963398835
H       -2.1613174502   -0.6684588753   -1.6141651952
H       -1.6688734992   -1.2680025536   -0.0275551083
H       -0.9814297545   -1.9688923569   -1.4957609530
H        0.4538804342   -0.4100641986   -3.0083964542
H        1.3979652739    0.9019562640   -2.1015547139
21   
torsion grid (120,)
C        1.8322362553   -0.8420242575    1.2259642123
C        0.5300015528   -0.0824048472    1.4977653221
C        0.0647119556    0.7996360922    0.3191275604
H        0.8701318202    1.5150290386    0.1093311750
C       -1.1889392804    1.6079548164    0.7021013008
C       -0.1616462434   -0.0017477122   -0.9508688538
C       -1.2207613249   -1.0925553113   -0.9268517465
C        0.5463557923    0.2441535296   -2.0617034102
H        2.1408948382   -1.4207778367    2.1032514478
H        2.6455829797   -0.1505857437    0.9767243725
H        1.7237099566   -1.5334083555    0.3845101034
H       -0.2634083833   -0.7927429329    1.7629327801
H        0.6595286685    0.5645261098    2.3747872117
H       -1.4963842252    2.2659210050   -0.1170208206
H       -2.0339672329    0.9534165353    0.9427523794
H       -0.9919640270    2.2281286919    1.5838365467
H       -2.0018132178   -0.9000062869   -1.6696534796
H       -1.7103896333   -1.1743495434    0.0464808306
H       -0.7838683275   -2.0702876233   -1.1558245141
H        0.3862088129   -0.3194324562   -2.9794928426
H        1.3102100481    1.0181526432   -2.0894883324
21   
torsion grid (135,)
C        1.8939798812   -0.8509513230    1.2825380907
C        0.5772699583   -0.1044352237    1.5197499276
C        0.1294264448    0.7599952986    0.3222013227
H        0.9365336681    1.4734777818    0.1121399361
C       -1.1293760202    1.5747340491    0.6739565591
C       -0.0788274140   -0.0623143528   -0.9380188438
C       -1.0844715282   -1.1994355302   -0.8861591327
C        0.5923728323    0.2127917511   -2.0648029069
H        2.1846267802   -1.4288517006    2.1664860225
H        2.7068756706   -0.1509536803    1.0570642734
H        1.8158673103   -1.5417833952    0.4370582391
H       -0.2144006509   -0.8216806729    1.7712727404
H        0.6801132033    0.5499721514    2.3947215426
H       -1.4291825700    2.2132601883   -0.1630152105
H       -1.9764139515    0.9259250821    0.9225207351
H       -0.9403896010    2.2149360829    1.5430370302
H       -1.7277138632   -1.2000733301   -1.7710782478
H       -1.7388630271   -1.1285576140   -0.0132121873
H       -0.5803290762   -2.1710368901   -0.8313240622
H        0.4313307269   -0.3540745373   -2.9802343138
H        1.3273854037    1.0137048012   -2.1076805118
21   
torsion grid (150,)
C        1.8175136401   -0.9071127211    1.2404380848
C        0.5168931697   -0.1332690984    1.4793164204
C        0.1019002823    0.7619172017    0.2931130243
H        0.9312031531    1.4533032088    0.0956836309
C       -1.1315907996    1.6114028272    0.6532726192
C       -0.1279935264   -0.0359861933   -0.9798245391
C       -1.1320276086   -1.1696937759   -0.9283092153
C        0.5230383852    0.2616825161   -2.1128671336
H        2.0821190264   -1.5139065194    2.1131180658
H        2.6503592752   -0.2222853116    1.0431067589
H        1.7344377752   -1.5747547012    0.3768564530
H       -0.2953311868   -0.8344620912    1.7097703030
H        0.6277970831    0.5021199581    2.3671555146
H       -1.4155342977    2.2629068346   -0.1791455488
H       -1.9962264931    0.9868048995    0.9028222840
H       -0.9199699713    2.2411473482    1.5247358402
H       -1.6096240315   -1.3211830396   -1.9002616299
H       -1.9277854857   -0.9747117761   -0.2027908345
H       -0.6527404452   -2.1095255968   -0.6287841004
H        0.3418534749   -0.2828976002   -3.0376812388
H        1.2614488585    1.0598800634   -2.1511623690
21   
torsion grid (165,)
C        1.8160288725   -0.9161344124    1.2103205184
C        0.5224079158   -0.1383393230    1.4725247099
C        0.0911928017    0.7637208725    0.2973265402
H        0.9149337869    1.4613481696    0.0984361489
C       -1.1425331959    1.6031956265    0.6802575279
C       -0.1454734738   -0.0222641217   -0.9825382237
C       -1.1493720620   -1.1520332094   -0.9362485039
C        0.5070087455    0.2817678541   -2.1132662469
H        2.0960924604   -1.5211798551    2.0793837213
H        2.6463404019   -0.2337044465    0.9948883642
H        1.7150584495   -1.5857237931    0.3501332933
H       -0.2893442346   -0.8362130854    1.7143241023
H        0.6502559386    0.4939109836    2.3602885545
H       -1.4530351454    2.2466785154   -0.1490297187
H       -1.9937539631    0.9707803814    0.9547669674
H       -0.9171640857    2.2409684458    1.5423064295
H       -1.4351183607   -1.4694452981   -1.9426700903
H       -2.0632796683   -0.8594146567   -0.4080846771
H       -0.7424508046   -2.0215912611   -0.4058409027
H        0.3276480869   -0.2578319329   -3.0410833178
H        1.2438895813    1.0817043081   -2.1466669670
21   
torsion grid (180,)
C        1.8483362914   -0.8986018848    1.1768229040
C        0.5601687991   -0.1254438393    1.4754961156
C        0.0852706782    0.7710259523    0.3118020698
H        0.8877344669    1.4912103788    0.1065803305
C       -1.1643541347    1.5722936257    0.7229295627
C       -0.1468923007   -0.0100345015   -0.9720024970
C       -1.1844121090   -1.1080293374   -0.9482317646
C        0.5456510674    0.2677526393   -2.0856598497
H        2.1675661057   -1.4831422567    2.0464427732
H        2.6637954679   -0.2148664383    0.9138598308
H        1.7178250385   -1.5863947553    0.3353530236
H       -0.2392292123   -0.8256288810    1.7492938982
H        0.7128957055    0.5136626656    2.3543809467
H       -1.5116076798    2.2094405260   -0.0969178587
H       -1.9894916177    0.9122331506    1.0117483971
H       -0.9414452721    2.2138593556    1.5827099985
H       -1.2641966400   -1.5977165930   -1.9223952646
H       -2.1740741140   -0.7193843270   -0.6819889464
H       -0.9358704326   -1.8750259073   -0.2051670240
H        0.3834729748   -0.2788708802   -3.0124493307
H        1.2982579786    1.0533387527   -2.1059588506
