26   
torsion grid (-165,)
C       -3.0794244144   -0.0595273967    1.6477236677
C        0.0923758505    0.5631437480   -0.0895204126
C       -3.5175829770    0.3667764739    3.0392135308
C       -2.0963553589    1.0131906224   -1.2420806890
C        2.2066287763    0.4604491768   -1.3017979220
C        1.0369014356   -1.8025974714   -2.6107145824
C       -1.3921819654    0.2116644837   -0.1288483977
N       -1.9371046624    0.5223794462    1.1839611017
N        0.9408447792   -0.1643518985   -0.9098198098
O       -3.7206692549   -0.8788125304    0.9854884234
O        0.5309891961    1.4268245243    0.6700280039
O        0.2416250321   -0.7953481683   -1.9828466154
H       -4.5081613106    0.8249763337    2.9702386505
H       -3.6115236701   -0.5249798564    3.6645486253
H       -2.8312333334    1.0704704996    3.5184569518
H       -1.9741511867    2.0870349913   -1.0693692092
H       -3.1609483980    0.7693714062   -1.2246015920
H       -1.6909491181    0.7581670516   -2.2240382993
H        2.9805777277   -0.2965558612   -1.4408122598
H        2.4973492487    1.1248960471   -0.4894735873
H        2.0799723936    1.0409141366   -2.2235741572
H        0.3469073626   -2.3196437174   -3.2799796413
H        1.4353090033   -2.5077794749   -1.8719484298
H        1.8533744259   -1.3701932496   -3.1987854167
H       -1.5295811712   -0.8534819155   -0.3173437796
H       -1.4213620296    1.1957695713    1.7383525433
26   
torsion grid (-150,)
C       -3.0476820520   -0.0986839112    1.6133508174
C        0.1053367631    0.6076653807   -0.1225700297
C       -3.4859011444    0.2845724067    3.0172132372
C       -2.0959515761    1.0656413195   -1.2508260258
C        2.2273321985    0.5308925299   -1.3464145954
C        0.9483323784   -1.8747492399   -2.4921053321
C       -1.3764441830    0.2428456045   -0.1636204778
N       -1.9160307654    0.5115653703    1.1603417706
N        0.9491074819   -0.0783723368   -0.9776340664
O       -3.6797368952   -0.9098645688    0.9323495379
O        0.5427105021    1.4495643715    0.6620600083
O        0.2700352973   -0.6883885775   -2.0649306442
H       -4.4826262489    0.7314062201    2.9639320400
H       -3.5658111071   -0.6245691148    3.6190100163
H       -2.8069438854    0.9843493553    3.5124219490
H       -1.9829444595    2.1358302783   -1.0513213480
H       -3.1581012711    0.8112711457   -1.2331288630
H       -1.6946206936    0.8403088700   -2.2417439939
H        2.9872594607   -0.2390234674   -1.4956415034
H        2.5276701914    1.1758606589   -0.5217655878
H        2.1149781414    1.1251861019   -2.2606147790
H        0.2682937031   -2.3442297078   -3.2051741988
H        1.1277680884   -2.5468079874   -1.6457776219
H        1.8931859693   -1.6401721953   -2.9944666370
H       -1.5049959210   -0.8182906132   -0.3795218344
H       -1.4056062405    1.1769673483    1.7292966485
26   
torsion grid (-135,)
C       -3.0094178842   -0.1393824350    1.5763498660
C        0.1096448348    0.6845033500   -0.1591293956
C       -3.4474182887    0.1981536553    2.9918042598
C       -2.1020534753    1.1307828191   -1.2733626993
C        2.2401910459    0.6416654420   -1.3821418669
C        0.8112033737   -1.9001392882   -2.3468052585
C       -1.3665121860    0.2965514204   -0.2063583046
N       -1.9082002788    0.5250062681    1.1240716754
N        0.9595167885    0.0306237618   -1.0307866135
O       -3.6164366173   -0.9607806778    0.8847926863
O        0.5353094984    1.5169351087    0.6416010560
O        0.3078417977   -0.5742441731   -2.1320915529
H       -4.4628956820    0.6025462868    2.9575858367
H       -3.4814894249   -0.7245849766    3.5770559745
H       -2.7935441020    0.9173360746    3.4928903363
H       -2.0042870614    2.1981746608   -1.0523346707
H       -3.1604519702    0.8607352377   -1.2577254867
H       -1.7006490102    0.9316478628   -2.2699100139
H        2.9677150884   -0.1337252008   -1.6316725566
H        2.5891801853    1.1963379555   -0.5122689082
H        2.1194123689    1.3220539478   -2.2326173146
H        0.2080499947   -2.3019955018   -3.1630036406
H        0.6861837089   -2.5123912838   -1.4475355841
H        1.8647977028   -1.8848493192   -2.6464080020
H       -1.4805396866   -0.7615078240   -0.4449114470
H       -1.4084670504    1.1863536697    1.7071891940
26   
torsion grid (-120,)
C       -2.9411601818   -0.2026590057    1.5264860776
C        0.1586338426    0.6854496758   -0.2103066368
C       -3.3787055323    0.1101289633    2.9476148624
C       -2.0603182941    1.1317028567   -1.3080934277
C        2.2944035879    0.6594813525   -1.4481138871
C        0.7015323280   -1.9657890201   -2.2054510627
C       -1.3150591243    0.2851768333   -0.2579319470
N       -1.8521429702    0.4841418857    1.0783698236
N        1.0013740979    0.0750055913   -1.1116080867
O       -3.5381982318   -1.0244952787    0.8265385339
O        0.5825545061    1.5016880411    0.6091665432
O        0.3758853183   -0.5664413382   -2.2008653031
H       -4.3960307435    0.5106001876    2.9210899958
H       -3.4080093649   -0.8218564692    3.5181730507
H       -2.7275060943    0.8244857826    3.4589460172
H       -1.9691494660    2.1959645583   -1.0700783973
H       -3.1169096963    0.8543069737   -1.2945620789
H       -1.6598973096    0.9513726039   -2.3087418220
H        2.9912737223   -0.1313181422   -1.7357049804
H        2.6687862825    1.1695163502   -0.5613469018
H        2.1920656506    1.3749250636   -2.2717872889
H        0.1782256391   -2.3772172110   -3.0706025893
H        0.3504916914   -2.4486690997   -1.2874852909
H        1.7801241165   -2.1203696426   -2.3190487692
H       -1.4265909827   -0.7692503196   -0.5131040236
H       -1.3585784134    1.1447736558    1.6677372138
26   
torsion grid (-105,)
C       -2.1639029735   -0.4358790882    1.3234487732
C        0.1202144030    0.9937805192   -0.4139890573
C       -2.6710087198   -0.2941539527    2.7469345747
C       -1.9134606327    1.8736755952   -1.5717066499
C        2.4370162183    0.4805695272   -1.1455230237
C        0.4760103213   -1.9856048279   -1.6957123880
C       -1.3761064783    0.7558349001   -0.6728599079
N       -2.0731290488    0.7319701387    0.6068999908
N        1.0113875471    0.2053989557   -1.0861029786
O       -1.8732844948   -1.5341210496    0.8449777296
O        0.4886246391    1.8613807064    0.3817116802
O        0.5336721563   -0.6063230860   -2.1271670487
H       -3.4481574496   -1.0419672106    2.9200348011
H       -1.8462610897   -0.5080412675    3.4336898317
H       -3.0678537649    0.7000343915    2.9690293028
H       -1.7479465222    2.8539894870   -1.1136606292
H       -2.9852683750    1.7344834999   -1.7381475267
H       -1.4033855700    1.8573721037   -2.5394040567
H        3.0018122552   -0.4508124609   -1.0469750420
H        2.6800236021    1.1447146852   -0.3166073708
H        2.6943680693    0.9618618158   -2.0956224981
H        0.1036112813   -2.5341101087   -2.5635467717
H       -0.2064147120   -2.0961930534   -0.8483090604
H        1.4763787615   -2.3478009273   -1.4336902734
H       -1.5454969216   -0.2080276209   -1.1423927030
H       -2.0405743609    1.5959280671    1.1363834849
26   
torsion grid (-90,)
C       -2.1522296073   -0.4278484187    1.3533639095
C        0.1021850041    0.9924012689   -0.3380348727
C       -2.6894813101   -0.2902183784    2.7654739527
C       -1.8909011199    1.9042979217   -1.5389783372
C        2.4442475579    0.5755333360   -1.0736092252
C        0.5133167911   -1.8578535009   -1.6409837608
C       -1.3891673102    0.7665416208   -0.6429419834
N       -2.1287880479    0.7274851399    0.6107422876
N        1.0078473279    0.3857964425   -1.1564531885
O       -1.7772870104   -1.5124617222    0.9032298516
O        0.4490377609    1.7527600436    0.5697799606
O        0.5725331820   -0.5015088783   -2.1477792485
H       -3.3763048930   -1.1155787279    2.9645817904
H       -1.8525371024   -0.3766144047    3.4655434835
H       -3.2002390258    0.6601023291    2.9421924422
H       -1.7325940088    2.8758739342   -1.0594778403
H       -2.9584313478    1.7776550068   -1.7397337950
H       -1.3514486838    1.8994041319   -2.4901020661
H        2.9467527682   -0.3439780399   -0.7533102909
H        2.6294471421    1.3586274495   -0.3388424391
H        2.8304366553    0.8776148432   -2.0516622911
H        0.1398044259   -2.4495223141   -2.4792871000
H       -0.1678826664   -1.9281113261   -0.7886339527
H        1.5138390226   -2.2078284832   -1.3637460302
H       -1.5502641337   -0.1855316474   -1.1397670186
H       -2.1432977951    1.5976982170    1.1307249568
26   
torsion grid (-75,)
C       -2.1601510147   -0.4480523577    1.3244393125
C        0.1313974381    0.8973983928   -0.3837903234
C       -2.6891248226   -0.2973270829    2.7381202404
C       -1.8388303074    1.8941852415   -1.5552990351
C        2.4498059516    0.5080501708   -1.1624820894
C        0.4759644897   -1.8681753936   -1.6165784094
C       -1.3719156312    0.7285320463   -0.6739994366
N       -2.1042619629    0.7063547125    0.5828512133
N        1.0061275997    0.4208756092   -1.3233873134
O       -1.8207286686   -1.5429689541    0.8711619907
O        0.5166336883    1.5589104001    0.5817144506
O        0.5785870147   -0.5602737441   -2.2338905232
H       -3.4286764008   -1.0793101570    2.9238898947
H       -1.8605784530   -0.4501205086    3.4365076294
H       -3.1378682706    0.6808201275    2.9304355515
H       -1.6420484498    2.8548905241   -1.0677288142
H       -2.9121590664    1.8083079949   -1.7463771942
H       -1.3077597323    1.8790589266   -2.5103993324
H        2.8540914074   -0.3478514275   -0.6085833314
H        2.6716638010    1.4193213575   -0.6077236924
H        2.9041294894    0.5513691020   -2.1545769331
H        0.0995888393   -2.5153754823   -2.4113603678
H       -0.2189990637   -1.8623649971   -0.7730797523
H        1.4630873589   -2.2211509006   -1.2975624543
H       -1.5727315789   -0.2096063136   -1.1837328532
H       -2.0927674596    1.5752077091    1.1047078818
26   
torsion grid (-60,)
C       -2.2602434069   -0.4456507617    1.2698315523
C        0.1809666401    0.8768609900   -0.4225553873
C       -2.7489060797   -0.3092213835    2.6998675601
C       -1.7850941675    1.9495073604   -1.5192274314
C        2.4621909091    0.5612118166   -1.2834882399
C        0.4412537890   -1.8656260843   -1.4701065898
C       -1.3339665931    0.7522377603   -0.6687495317
N       -2.0324798910    0.7339710715    0.6065238269
N        1.0145234121    0.4503993319   -1.4311550451
O       -2.0984332392   -1.5478399470    0.7421346811
O        0.6100701267    1.5050071506    0.5450309003
O        0.6352922862   -0.6493998180   -2.2330490205
H       -3.5884626801   -0.9909854552    2.8517188229
H       -1.9437349488   -0.6182683282    3.3736568246
H       -3.0545147373    0.7081178192    2.9582234772
H       -1.5509027945    2.8943339925   -1.0176964675
H       -2.8646884277    1.8963539082   -1.6843568467
H       -1.2768232557    1.9379911436   -2.4865585597
H        2.8740454764   -0.2256867722   -0.6399299421
H        2.6875414209    1.5295186954   -0.8373908152
H        2.9058971406    0.4940138242   -2.2782227405
H        0.2046425646   -2.6195746179   -2.2236923143
H       -0.3803438312   -1.7853723022   -0.7557222457
H        1.3666658196   -2.1470290322   -0.9539582065
H       -1.5831466766   -0.1676390463   -1.1905843039
H       -1.9046199066    1.5606418877    1.1789664440
26   
torsion grid (-45,)
C       -2.3364109278   -0.6825337268    0.7974991875
C        0.3826537200    0.7659956509   -0.8528218448
C       -2.7629217289   -0.6834643987    2.2548759574
C       -1.7132069357    1.8141082666   -1.6840854260
C        2.6056356455    0.4337490344   -1.8113670275
C        0.5697049797   -2.0528052087   -1.3692756347
C       -1.1350085623    0.5828861958   -0.9642527409
N       -1.6865994860    0.4438761692    0.3746930035
N        1.1594842692    0.2265249570   -1.8568756186
O       -2.5840645708   -1.6325699175    0.0507791974
O        0.8557462022    1.5238538225   -0.0054789520
O        0.8604983795   -1.0587152254   -2.3793880194
H       -3.8528006861   -0.7605116386    2.2985757087
H       -2.3518699767   -1.5725795984    2.7400120494
H       -2.4469980018    0.2069443235    2.8051821927
H       -1.4802756265    2.7290706859   -1.1315463793
H       -2.7990180332    1.7106704654   -1.7601427872
H       -1.2949560406    1.8983704759   -2.6913507226
H        3.0854062015   -0.1955247004   -1.0515776612
H        2.7991317471    1.4798092158   -1.5755086145
H        3.0064692333    0.1909431821   -2.7965516511
H        0.7098034411   -3.0085557995   -1.8792359434
H       -0.4550519434   -1.9868800400   -0.9999183901
H        1.2821723029   -1.9775377892   -0.5393223229
H       -1.4050928937   -0.3081327645   -1.5242625218
H       -1.3649801228    1.1197890619    1.0574375137
26   
torsion grid (-30,)
C       -2.3780593200   -0.6227708107    0.8467634647
C        0.4040379959    0.8260457362   -0.8845215949
C       -2.7395642196   -0.6756800033    2.3207616906
C       -1.7682429992    1.8701853359   -1.5036385464
C        2.5796527202    0.4626389528   -1.9178483223
C        0.4445805522   -2.0111549071   -1.1386407863
C       -1.1127790959    0.6207007554   -0.8900134545
N       -1.5515951306    0.4016545651    0.4809342879
N        1.1409840994    0.1997417452   -1.8709826109
O       -2.8070420731   -1.4539591386    0.0428538349
O        0.9084669212    1.6692812593   -0.1417233908
O        0.9161327439   -1.1662093034   -2.2098043357
H       -3.8245850883   -0.5809002997    2.4171812320
H       -2.4604469157   -1.6563393857    2.7149362403
H       -2.2588465068    0.1028683128    2.9195076354
H       -1.5086163686    2.7626019564   -0.9277621418
H       -2.8541985367    1.7428556946   -1.5018425520
H       -1.4324651443    2.0102189887   -2.5357204909
H        3.1081417300   -0.0258733105   -1.0903460884
H        2.7399644723    1.5386647848   -1.8568511481
H        2.9532285655    0.0821381208   -2.8694675953
H        0.7739571366   -3.0147818393   -1.4185878242
H       -0.6419473348   -2.0006575918   -1.0427185833
H        0.9113681549   -1.7298120739   -0.1872767998
H       -1.4121702558   -0.2463537806   -1.4716463683
H       -1.1907241393    1.0415951076    1.1779916678
26   
torsion grid (-15,)
C       -2.3755880620   -0.6158985214    0.8453166390
C        0.4188114042    0.8102261764   -0.8942290861
C       -2.7404547061   -0.6622676502    2.3188931374
C       -1.7517324008    1.8449912277   -1.5267478250
C        2.5914326643    0.5102142301   -1.9420343367
C        0.3543574961   -2.0362248771   -1.1979562440
C       -1.0974505462    0.6031300171   -0.8959309313
N       -1.5390957203    0.3998734310    0.4763026738
N        1.1692146066    0.1771158386   -1.8670804331
O       -2.8119086705   -1.4445059260    0.0431247958
O        0.9125266813    1.6825165763   -0.1765995566
O        1.0449502116   -1.2190699206   -2.1586870830
H       -3.8244445938   -0.5544408514    2.4133725761
H       -2.4736932608   -1.6455207039    2.7151228403
H       -2.2515268413    0.1113442098    2.9173573770
H       -1.4913949635    2.7444538626   -0.9625072349
H       -2.8377601030    1.7183245558   -1.5239220751
H       -1.4150361859    1.9711307186   -2.5603616311
H        3.1498648776    0.0939439333   -1.0956445047
H        2.6957320555    1.5948378075   -1.9425547438
H        2.9754629623    0.0981367548   -2.8762261505
H        0.7653683355   -3.0364901534   -1.3554942952
H       -0.7247080930   -2.0609822585   -1.3549752139
H        0.5725603536   -1.7130684026   -0.1731840613
H       -1.4019019201   -0.2695943836   -1.4642980664
H       -1.1779796438    1.0441119946    1.1691969224
26   
torsion grid (0,)
C       -2.1792861470   -0.6667352994    1.1588216125
C        0.3088403586    0.6181269674   -0.6540953655
C       -2.6008206051   -0.5088330979    2.6084079785
C       -1.7277105743    1.6158357029   -1.6775666665
C        2.5867977100    0.4723909991   -1.4994794929
C        0.0919849791   -2.0844932867   -1.8812105443
C       -1.2132945131    0.4585508271   -0.8056130693
N       -1.8232419621    0.4908711269    0.5150613342
N        1.1729518693    0.1190067649   -1.6029388470
O       -2.1891554520   -1.7648601661    0.5982979585
O        0.7288585391    1.4061593842    0.2014990883
O        1.1297057647   -1.1659290596   -2.2341706552
H       -3.6157895913   -0.8986546522    2.7218863313
H       -1.9424484571   -1.1198030306    3.2320145002
H       -2.5726977951    0.5252662841    2.9616306349
H       -1.4762967572    2.5808524037   -1.2271789893
H       -2.8143208954    1.5435964363   -1.7765583381
H       -1.2767604852    1.5730239813   -2.6730948751
H        3.0815084480   -0.0851283504   -0.6963908214
H        2.6661905096    1.5394777057   -1.2987045377
H        3.0546229957    0.2337180210   -2.4557535726
H        0.4781906616   -3.0450007691   -2.2303921186
H       -0.8445883591   -1.8699850428   -2.4057328486
H       -0.0866400361   -2.1288826631   -0.8033380442
H       -1.5079293411   -0.4824143499   -1.2528006631
H       -1.5728163751    1.2907142284    1.0851320156
26   
torsion grid (15,)
C       -2.5470622530   -0.5805599189    0.6670586471
C       -0.0205049450    0.6700783330   -1.7218249218
C       -2.4787315918   -0.8205873766    2.1644776665
C       -2.2900900135    1.7667558435   -1.6418020264
C        2.3579896657    0.3336455157   -1.3328115852
C       -0.0257401869   -2.1496096283   -1.2365665355
C       -1.4826775187    0.5138121910   -1.2773357474
N       -1.5616073086    0.2110700352    0.1470600393
N        0.9719583589    0.0644022960   -0.9429652543
O       -3.4239281317   -1.0844882147   -0.0374144490
O        0.2934223174    1.4519783278   -2.6126773827
O        0.9114988007   -1.3144035862   -0.5453225888
H       -3.4525131753   -0.5878092955    2.6019569284
H       -2.2845115523   -1.8827327886    2.3397832415
H       -1.7068734640   -0.2318711920    2.6676166500
H       -1.8948539582    2.6468012082   -1.1264458053
H       -3.3289135087    1.6107335290   -1.3414370114
H       -2.2474299113    1.9512439722   -2.7167488844
H        2.9997594067   -0.0733829379   -0.5502031363
H        2.4992283397    1.4116552118   -1.4055377712
H        2.6078882583   -0.1262676988   -2.2956870308
H        0.3242549466   -3.1640280931   -1.0308190962
H        0.0073781947   -1.9711833856   -2.3184270907
H       -1.0446421760   -2.0399476280   -0.8633709948
H       -1.9312623715   -0.3328622904   -1.8057485585
H       -0.8182796526    0.5430675130    0.7471261788
26   
torsion grid (30,)
C       -2.5325167764   -0.6257987916    0.6452652180
C       -0.0506357231    0.6603999668   -1.7342123149
C       -2.4643121187   -0.8650959838    2.1424800745
C       -2.2960809417    1.8023192910   -1.6651136467
C        2.3239805083    0.2288361911   -1.3844158441
C       -0.0095683612   -2.1549036063   -1.2104303622
C       -1.5134831280    0.5384388454   -1.2833147656
N       -1.6119634683    0.2502058440    0.1417855765
N        0.9366198382    0.0632341687   -0.9466949664
O       -3.3600475344   -1.1947621213   -0.0699111204
O        0.2690895446    1.3928621427   -2.6643649015
O        0.7864272598   -1.2563565513   -0.4197467683
H       -3.4531154962   -0.6867647895    2.5721024651
H       -2.2139639497   -1.9154454616    2.3165749333
H       -1.7304915321   -0.2360806110    2.6535437866
H       -1.8905387626    2.6799868797   -1.1533409964
H       -3.3398932637    1.6681414396   -1.3710366630
H       -2.2414980027    1.9772165802   -2.7410302835
H        2.9651006141   -0.1253262024   -0.5760523360
H        2.5102544520    1.2857395817   -1.5722895820
H        2.5332773643   -0.3372238009   -2.2999722284
H        0.3131147755   -3.1516123722   -0.8998072703
H        0.1971103366   -2.0256536992   -2.2794686296
H       -1.0770883786   -2.0463510102   -1.0121684391
H       -1.9736293140   -0.3060601726   -1.8052471440
H       -0.8841066071    0.6018306711    0.7493666753
26   
torsion grid (45,)
C       -2.5548741242   -0.6769117054    0.8924975720
C       -0.1458766088    0.5737342431   -1.4283987203
C       -2.4950413302   -0.8150953885    2.4019167614
C       -2.3366818357    1.8148540250   -1.5708337787
C        2.1558584654   -0.1270770782   -0.9910111046
C       -0.2304506457   -2.3055679926   -1.0756028935
C       -1.6403261563    0.5488761484   -1.0583806768
N       -1.8374852189    0.3665042826    0.3731646074
N        0.7385122337   -0.1466826289   -0.6299453527
O       -3.1914230489   -1.4619933477    0.1870376908
O        0.2846055597    1.3161288633   -2.3058998783
O        0.3890367249   -1.4220169689   -0.1150490121
H       -3.4634963506   -1.1618294209    2.7660384348
H       -1.7463416436   -1.5749580279    2.6485671067
H       -2.2247541221    0.1155655699    2.9090837239
H       -1.9257022398    2.7090708018   -1.0928059876
H       -3.4030025839    1.7477522408   -1.3402833985
H       -2.2034595886    1.9184678705   -2.6491322133
H        2.7142043291   -0.5362729247   -0.1478341800
H        2.4579281141    0.9031381873   -1.1762093851
H        2.3578231078   -0.7199937011   -1.8918792840
H       -0.0121196980   -3.3121728169   -0.7109416866
H        0.2162009038   -2.1741347478   -2.0675939389
H       -1.3116005172   -2.1650563409   -1.1096450821
H       -2.1100203744   -0.3146221441   -1.5361967633
H       -1.2366756663    0.8879944320    0.9980980885
26   
torsion grid (60,)
C       -2.9639216090   -0.1613519274    1.5661582464
C        0.0038180042    0.6940076478   -0.3588366198
C       -3.4289446288    0.3384341297    2.9235431647
C       -2.2639828157    0.9710756227   -1.4370345223
C        2.3944583284    0.1089625083   -0.5946924282
C        0.2288117356   -1.4085318096   -2.4768667162
C       -1.4590642786    0.2405404437   -0.3509088343
N       -1.9629982821    0.5640011073    0.9808299157
N        0.9835366922   -0.2476001561   -0.5359302118
O       -3.4524867402   -1.1603175210    1.0369585894
O        0.2880741223    1.8641515293   -0.0870260147
O        0.7298860373   -1.4976746749   -1.1299833744
H       -4.4953967511    0.5726593044    2.8647974067
H       -3.3096463349   -0.4687879595    3.6510183462
H       -2.8865996617    1.2201042871    3.2761444289
H       -2.1957901821    2.0516952029   -1.2854170204
H       -3.3102898692    0.6620224497   -1.3756604920
H       -1.8926927164    0.7457155017   -2.4417779970
H        2.9749133431   -0.7152255510   -0.1751328245
H        2.5414178458    1.0130682660   -0.0056405171
H        2.7186055121    0.2951857060   -1.6261396195
H        0.4219840314   -2.3893130467   -2.9163705447
H        0.7634671673   -0.6385064643   -3.0440216144
H       -0.8451019440   -1.2106137499   -2.4944554036
H       -1.5487110574   -0.8393951418   -0.4580485237
H       -1.6515171515    1.4387242369    1.3856233686
26   
torsion grid (75,)
C       -3.0089937541   -0.1622023889    1.5522729375
C        0.0044106573    0.7186544288   -0.3114679555
C       -3.4802803927    0.3041428287    2.9194766759
C       -2.2538211395    1.0102710312   -1.3952400240
C        2.3989101545    0.1363194109   -0.6495751148
C        0.2893824332   -1.4385854257   -2.4942635187
C       -1.4545628668    0.2552674641   -0.3204975729
N       -1.9692366709    0.5437876451    1.0147616800
N        0.9824577457   -0.1875038075   -0.6110948586
O       -3.5259442125   -1.1203718936    0.9758836140
O        0.2850020990    1.8706970325    0.0353176187
O        0.6864635342   -1.4639968861   -1.1108413781
H       -4.5354206826    0.5827243886    2.8507413415
H       -3.4066436870   -0.5337435379    3.6177566391
H       -2.9108241349    1.1498374878    3.3149091350
H       -2.1941928062    2.0870394779   -1.2151745632
H       -3.2981229739    0.6918210677   -1.3522434454
H       -1.8713702782    0.8126665831   -2.4019064305
H        2.9554184973   -0.6344722346   -0.1102146335
H        2.5331390551    1.1041372767   -0.1681316494
H        2.7639160822    0.1914899812   -1.6819054500
H        0.2823359921   -2.4854317762   -2.8035715844
H        1.0103602390   -0.8782208104   -3.0996922809
H       -0.7102533048   -1.0150099981   -2.6165034767
H       -1.5367367746   -0.8209537635   -0.4633395354
H       -1.6336069184    1.3920443980    1.4554437144
26   
torsion grid (90,)
C       -2.9800915987   -0.1167425348    1.5175048954
C        0.0851014969    0.7263135061   -0.2995836388
C       -3.4562096042    0.3386937451    2.8867388161
C       -2.1560570488    1.0299126143   -1.3993514696
C        2.4652699195    0.1606727489   -0.7608671051
C        0.3304310755   -1.4973076217   -2.5647160180
C       -1.3738802198    0.2675381772   -0.3147974308
N       -1.9018532467    0.5536171744    1.0140121493
N        1.0392867704   -0.1128614184   -0.8007813047
O       -3.5280339781   -1.0383218727    0.9098545278
O        0.3829903463    1.8362032924    0.1536541826
O        0.7247729623   -1.4244579195   -1.1829242331
H       -4.4968535821    0.6646249688    2.8059582140
H       -3.4320901336   -0.5170227049    3.5666626210
H       -2.8581901702    1.1497096632    3.3115245435
H       -2.0978041130    2.1059353397   -1.2135282830
H       -3.2012401839    0.7127982655   -1.3732049917
H       -1.7572692370    0.8340180026   -2.3998803373
H        2.9574935578   -0.5221111457   -0.0607857640
H        2.5971818821    1.1901396568   -0.4298523519
H        2.9025227770    0.0341944793   -1.7563734278
H        0.2567882780   -2.5648194811   -2.7806361057
H        1.0855905375   -1.0371886533   -3.2114363190
H       -0.6398221161   -1.0209654924   -2.7272456754
H       -1.4574021278   -0.8067059391   -0.4707845757
H       -1.5282693673    1.3717225694    1.4808021846
26   
torsion grid (105,)
C       -3.0430796946   -0.0819177735    1.5396000904
C        0.0782054649    0.7113413416   -0.2205492506
C       -3.5306901369    0.3726567155    2.9050345444
C       -2.1395693976    0.9996959751   -1.3626126204
C        2.4291518052    0.2168014072   -0.8098336922
C        0.3484676512   -1.5071625841   -2.6237841443
C       -1.3799448532    0.2545120216   -0.2473142427
N       -1.9363366144    0.5587203788    1.0629802477
N        0.9983712964   -0.0283990019   -0.9211474749
O       -3.6097091987   -0.9776146959    0.9098994629
O        0.4026110371    1.7521545245    0.3563459559
O        0.6928099883   -1.3654843076   -1.2357883909
H       -4.5590839747    0.7316782053    2.8090771860
H       -3.5458488475   -0.4908975359    3.5752903770
H       -2.9160611420    1.1600555034    3.3500424585
H       -2.0921096428    2.0787744186   -1.1899646349
H       -3.1835036575    0.6779925279   -1.3548705085
H       -1.7156530477    0.7905557094   -2.3493310581
H        2.8650395671   -0.3963843690   -0.0132763798
H        2.5737200530    1.2716322051   -0.5799739712
H        2.9126633124   -0.0249830441   -1.7598366001
H        0.2702246909   -2.5838082311   -2.7870105245
H        1.1313020708   -1.0888164728   -3.2658793271
H       -0.6095648887   -1.0288977211   -2.8457075382
H       -1.4556867503   -0.8212533369   -0.4000037032
H       -1.5234384780    1.3411414755    1.5572815891
26   
torsion grid (120,)
C       -3.0441910542   -0.0384709097    1.6640829730
C        0.0987702310    0.6355462161   -0.1097063556
C       -3.5252681692    0.4926086062    3.0041243375
C       -2.1252838555    0.7833821348   -1.2975028664
C        2.4283656266    0.1709608530   -0.7737475178
C        0.5508035404   -1.3541643645   -2.8034384512
C       -1.3547861483    0.1594074293   -0.1173731521
N       -1.9299017000    0.5612810192    1.1565945584
N        0.9906008022   -0.0105266498   -0.9346848616
O       -3.6275141557   -0.9534951057    1.0780033590
O        0.4515731878    1.6044174785    0.5662018733
O        0.6335528601   -1.3024259427   -1.3707136962
H       -4.5465307964    0.8656963606    2.8875940741
H       -3.5580290916   -0.3357897305    3.7168127409
H       -2.8970450172    1.2902154981    3.4102834151
H       -2.0781994707    1.8752874585   -1.2453593919
H       -3.1684445646    0.4651326873   -1.2401448307
H       -1.7173376861    0.4620512505   -2.2590069156
H        2.8267900609   -0.5362521520   -0.0376631840
H        2.6015331704    1.1908464916   -0.4332460182
H        2.9258041145    0.0171770990   -1.7342407884
H        0.2354016062   -2.3741490805   -3.0310259752
H        1.5267790768   -1.1610482014   -3.2632003769
H       -0.1838553846   -0.6395199185   -3.1837207769
H       -1.4028879524   -0.9271766263   -0.1906841770
H       -1.4658919518    1.3223610724    1.6392216199
26   
torsion grid (135,)
C       -3.0573450662    0.0175586497    1.6107721291
C        0.1165650148    0.5938553223   -0.1420266046
C       -3.5451659350    0.6035810960    2.9252302653
C       -2.0902914886    0.6124953237   -1.3878950198
C        2.4107838643    0.1620595393   -0.9091026625
C        0.6867578927   -1.2593254735   -3.0092894607
C       -1.3338872795    0.1085382676   -0.1440443143
N       -1.9413134546    0.5960181865    1.0833055237
N        0.9649627558    0.0471241629   -1.0840611397
O       -3.6411206340   -0.9177900275    1.0578619170
O        0.5033577727    1.4849394358    0.6151241338
O        0.5554222819   -1.2118672430   -1.5820642632
H       -4.5650868035    0.9732354821    2.7880297215
H       -3.5834050280   -0.1950249622    3.6709695336
H       -2.9180603472    1.4164234138    3.3018129359
H       -2.0465210799    1.7043959171   -1.4463646107
H       -3.1336446798    0.3002229753   -1.3087331389
H       -1.6703347928    0.1913680377   -2.3038962139
H        2.7892661157   -0.6642883069   -0.2969540061
H        2.6091096418    1.1100360115   -0.4112510525
H        2.9049470623    0.1547046680   -1.8831666817
H        0.2219099834   -2.2017168224   -3.3048293290
H        1.7395551419   -1.2624879004   -3.3135394815
H        0.1676400219   -0.4175616772   -3.4784702841
H       -1.3606878006   -0.9829619354   -0.1371684021
H       -1.4405412965    1.3306009520    1.5705701026
26   
torsion grid (150,)
C       -3.0645233107    0.0452087258    1.6319125874
C        0.0949611625    0.6033409744   -0.1542508499
C       -3.5296344104    0.6177778912    2.9605441672
C       -2.1213589640    0.6437112065   -1.3779889989
C        2.3498590629    0.1910598653   -1.0087534805
C        0.7843856871   -1.3052832336   -3.0421614140
C       -1.3596622529    0.1336722452   -0.1397196873
N       -1.9508137963    0.6206132736    1.0954816299
N        0.8973890959    0.1128634397   -1.1717023724
O       -3.6651230018   -0.8765491114    1.0745341053
O        0.5190444569    1.4435992436    0.6385078481
O        0.4504542516   -1.1454587450   -1.6596441237
H       -4.5475678518    0.9990396083    2.8415720811
H       -3.5661918443   -0.1905730249    3.6958168830
H       -2.8900749506    1.4195442954    3.3398966255
H       -2.0868342789    1.7365418809   -1.4245068580
H       -3.1621712751    0.3225330787   -1.3015074533
H       -1.6932692245    0.2344082409   -2.2957675178
H        2.7213423691   -0.6834225501   -0.4621732370
H        2.5671445216    1.0964129688   -0.4441812322
H        2.8344086308    0.2512395188   -1.9853292735
H        0.2492031233   -2.2024879104   -3.3585097199
H        1.8601979885   -1.4583646420   -3.1821670906
H        0.4495685468   -0.4410715843   -3.6266411192
H       -1.3938264023   -0.9582328329   -0.1363201393
H       -1.4243775881    1.3270973769    1.5969647173
26   
torsion grid (165,)
C       -3.0633483453    0.0460285154    1.6488668825
C        0.0585625497    0.6312836505   -0.1904240217
C       -3.4990766724    0.5832694328    3.0021083170
C       -2.1777836398    0.7370751996   -1.3665810270
C        2.2857824863    0.2157782381   -1.0853858170
C        0.8955740311   -1.3918108352   -3.0209173721
C       -1.4007673950    0.1795014614   -0.1580891910
N       -1.9607652656    0.6343532816    1.1032881991
N        0.8305425323    0.1695258930   -1.2481509397
O       -3.6774804110   -0.8597875552    1.0804817874
O        0.5102201135    1.4410441129    0.6183281139
O        0.3414028592   -1.0798640474   -1.7423625941
H       -4.5184890992    0.9691471111    2.9147711801
H       -3.5219176611   -0.2444059017    3.7161175951
H       -2.8501713634    1.3737681372    3.3891742598
H       -2.1318858991    1.8304357439   -1.3784553018
H       -3.2207859059    0.4248031021   -1.2825715992
H       -1.7663575970    0.3515765430   -2.3021031903
H        2.6460457128   -0.6774194394   -0.5609152241
H        2.5138589925    1.1007269858   -0.4936512019
H        2.7730485856    0.2996244496   -2.0582904847
H        0.3200495206   -2.2518820285   -3.3681036925
H        1.9523862613   -1.6710276152   -2.9506201836
H        0.7724926373   -0.5552324016   -3.7190101768
H       -1.4495361260   -0.9113967452   -0.1881498926
H       -1.4207222102    1.3245417928    1.6127316762
26   
torsion grid (180,)
C       -3.0703351821    0.0036436808    1.6707097335
C        0.0291665184    0.6364052324   -0.1884988534
C       -3.4800821369    0.4942929156    3.0495494042
C       -2.2190659374    0.8195007386   -1.3307655178
C        2.2383706900    0.2453684813   -1.1094423990
C        0.9933385156   -1.4878039223   -2.9364481488
C       -1.4347347554    0.2017461349   -0.1566043141
N       -1.9739375400    0.6078876656    1.1301714469
N        0.7832372195    0.2145680251   -1.2769019837
O       -3.6982508137   -0.8782529574    1.0801293457
O        0.5000910618    1.4058504326    0.6484822682
O        0.2545684826   -1.0101137417   -1.8150059484
H       -4.4973782538    0.8913021411    2.9926032474
H       -3.4987645622   -0.3587451295    3.7331349482
H       -2.8185284631    1.2650354513    3.4547306163
H       -2.1664829329    1.9119646238   -1.2914397954
H       -3.2633042325    0.5100056392   -1.2510303382
H       -1.8176468676    0.4753070045   -2.2863939386
H        2.5956221525   -0.6282420945   -0.5501750482
H        2.4681732229    1.1473659541   -0.5450763638
H        2.7313110326    0.2973650757   -2.0808985289
H        0.3995475687   -2.3243389637   -3.3095251557
H        1.9867980002   -1.8515040892   -2.6545080970
H        1.0784027940   -0.7223575137   -3.7178066242
H       -1.4971252476   -0.8862280568   -0.2327875945
H       -1.4235005863    1.2759026161    1.6576384048
