9    
torsion grid (-165,)
C       -0.7345399754   -0.1676539096    0.5765361162
C        0.2745657193    0.4473734720   -0.3760146574
O        1.6016331528    0.0532024597   -0.1062940626
F        0.2658934916    1.8232437880   -0.2091531387
H       -1.7351850092    0.2280270378    0.3793598960
H       -0.7606249021   -1.2554434439    0.4512708979
H       -0.4494079521    0.0634864649    1.6062477469
H        0.0194331629    0.2587412876   -1.4288359317
H        1.7260058116   -0.8509345127   -0.4340507624
9    
torsion grid (-150,)
C       -0.7538842173   -0.1611210877    0.5866202837
C        0.2779434634    0.4260726660   -0.3580327525
O        1.5898447107    0.0131903479   -0.0518418447
F        0.2737780268    1.8076058286   -0.2104285366
H       -1.7470308922    0.2423974727    0.3684760246
H       -0.7855920941   -1.2502867737    0.4801434700
H       -0.4813933023    0.0843525584    1.6164607387
H        0.0409291705    0.2236441461   -1.4117297111
H        1.7931786339   -0.7858125144   -0.5606015679
9    
torsion grid (-135,)
C       -0.7714705035   -0.1563551966    0.5948788404
C        0.2796038158    0.3992607306   -0.3461214764
O        1.5712227600   -0.0396614971   -0.0072806272
F        0.2832294465    1.7885809977   -0.2181367954
H       -1.7532052929    0.2690620296    0.3679961279
H       -0.8235979502   -1.2451301370    0.4982457245
H       -0.4997259222    0.0924310609    1.6242657302
H        0.0539480431    0.1861107940   -1.3991441737
H        1.8677691029   -0.6942561382   -0.6556372462
9    
torsion grid (-120,)
C       -0.7859558330   -0.1528722120    0.6017857355
C        0.2792655634    0.3705353854   -0.3399548970
O        1.5472684134   -0.1034265615    0.0230215414
F        0.2992128399    1.7672651347   -0.2292464582
H       -1.7552453977    0.2980729897    0.3722336467
H       -0.8643545634   -1.2401850299    0.5109558647
H       -0.5089734671    0.0947102800    1.6301534596
H        0.0564279243    0.1509668554   -1.3913132069
H        1.9401280197   -0.5850241979   -0.7185695815
9    
torsion grid (-105,)
C       -0.7972792559   -0.1510872192    0.6078231455
C        0.2767070509    0.3404467871   -0.3389765664
O        1.5207162988   -0.1714796344    0.0374522661
F        0.3223508170    1.7436043160   -0.2453559181
H       -1.7527792345    0.3288858701    0.3811870924
H       -0.9069885243   -1.2355010875    0.5185060687
H       -0.5095563238    0.0904178782    1.6347271942
H        0.0490381519    0.1182866194   -1.3883416401
H        2.0055645195   -0.4635308858   -0.7479555381
9    
torsion grid (-90,)
C       -0.8058188871   -0.1503881258    0.6133646651
C        0.2720614100    0.3105869081   -0.3420989392
O        1.4949173800   -0.2410790648    0.0341002259
F        0.3545892194    1.7171685706   -0.2637398287
H       -1.7483120677    0.3558610362    0.3910136340
H       -0.9459547310   -1.2311938395    0.5252781189
H       -0.5056004468    0.0850421646    1.6380429256
H        0.0318514891    0.0911357174   -1.3894381403
H        2.0600401337   -0.3370907230   -0.7474565571
9    
torsion grid (-75,)
C       -0.8118494308   -0.1504615749    0.6181893781
C        0.2653204799    0.2817895845   -0.3494350384
O        1.4719742870   -0.3085617437    0.0131858310
F        0.3932099214    1.6878489960   -0.2838999483
H       -1.7427703923    0.3787907606    0.4016774542
H       -0.9803933609   -1.2272761681    0.5322537512
H       -0.4966534067    0.0794992016    1.6394806631
H        0.0061509845    0.0701131466   -1.3944583664
H        2.1027844176   -0.2116995588   -0.7179276203
9    
torsion grid (-60,)
C       -0.8150951281   -0.1502235360    0.6216110659
C        0.2567821003    0.2573237063   -0.3607107458
O        1.4506956382   -0.3776981588   -0.0294695171
F        0.4403497312    1.6574067501   -0.2956498008
H       -1.7419217000    0.3858990869    0.4043159522
H       -0.9964369365   -1.2258848144    0.5487272739
H       -0.4893518908    0.0882156374    1.6375123709
H       -0.0289843948    0.0650450655   -1.4031953802
H        2.1317360802   -0.1000410931   -0.6640751148
9    
torsion grid (-45,)
C       -0.8148647069   -0.1488785121    0.6237526204
C        0.2461015107    0.2380463093   -0.3778187653
O        1.4323951646   -0.4369791844   -0.0864344351
F        0.4825218496    1.6286878874   -0.3122016806
H       -1.7410208514    0.3913533439    0.4131826954
H       -1.0054388222   -1.2236752905    0.5607266360
H       -0.4725156858    0.0936117653    1.6330532547
H       -0.0692031721    0.0635636947   -1.4152933564
H        2.1497982130   -0.0056873697   -0.5799008650
9    
torsion grid (-30,)
C       -0.8104019525   -0.1466871624    0.6238778805
C        0.2345108165    0.2239602247   -0.4004968580
O        1.4180132166   -0.4841783496   -0.1568361441
F        0.5140187119    1.6045418774   -0.3296866658
H       -1.7388882164    0.3948972513    0.4259060627
H       -1.0060786649   -1.2212353258    0.5711423093
H       -0.4480987363    0.0993141652    1.6253540171
H       -0.1116742942    0.0655113650   -1.4305066183
H        2.1563726188    0.0639185980   -0.4696878792
9    
torsion grid (-15,)
C       -0.8012403043   -0.1437793099    0.6223578232
C        0.2232996709    0.2143942486   -0.4279557014
O        1.4097595079   -0.5124681726   -0.2335032000
F        0.5274688655    1.5877488527   -0.3524038283
H       -1.7314705400    0.4028213659    0.4455592198
H       -1.0046624797   -1.2172865367    0.5758586900
H       -0.4139359536    0.0995880813    1.6152644765
H       -0.1511011747    0.0619248801   -1.4481465187
H        2.1496559075    0.1070992345   -0.3379648570
9    
torsion grid (0,)
C       -0.7875536541   -0.1412656168    0.6195361691
C        0.2138653097    0.2100636373   -0.4575928906
O        1.4082070750   -0.5202175505   -0.3123337349
F        0.5230595327    1.5803551375   -0.3773927897
H       -1.7175336320    0.4145326808    0.4700772730
H       -1.0019057869   -1.2127251436    0.5755300655
H       -0.3730406469    0.0947990118    1.6035262907
H       -0.1839095910    0.0529729861   -1.4668500951
H        2.1265848930    0.1215275014   -0.1954341838
9    
torsion grid (15,)
C       -0.7696179968   -0.1386134705    0.6159424115
C        0.2071144169    0.2116106021   -0.4869676983
O        1.4101144167   -0.5095022759   -0.3887243155
F        0.5060305957    1.5837316918   -0.4028604304
H       -1.7011580948    0.4213840579    0.4926776760
H       -0.9887850748   -1.2091390977    0.5764645535
H       -0.3320506198    0.0955871615    1.5908679264
H       -0.2100995658    0.0442412608   -1.4852242534
H        2.0862254223    0.1007427138   -0.0531097655
9    
torsion grid (30,)
C       -0.7489665030   -0.1358580832    0.6122193488
C        0.2030669727    0.2202138708   -0.5130821207
O        1.4145729120   -0.4822812015   -0.4568390804
F        0.4797868622    1.5978641834   -0.4288396463
H       -1.6855918764    0.4198950361    0.5105014876
H       -0.9635839167   -1.2074556909    0.5799848038
H       -0.2947942057    0.1040162610    1.5787549632
H       -0.2286030109    0.0399729879   -1.5015684216
H        2.0318862654    0.0436752803    0.0779347697
9    
torsion grid (45,)
C       -0.7266698280   -0.1330701225    0.6087218797
C        0.2015427577    0.2332509573   -0.5345649718
O        1.4239636743   -0.4398746134   -0.5073303065
F        0.4415171729    1.6208141649   -0.4611426862
H       -1.6680332235    0.4175180479    0.5274255500
H       -0.9351006623   -1.2059386745    0.5807007412
H       -0.2587238345    0.1115922670    1.5681264970
H       -0.2383094233    0.0352414217   -1.5149944913
H        1.9675868663   -0.0394908046    0.1921238920
9    
torsion grid (60,)
C       -0.7046186414   -0.1292369055    0.6061552286
C        0.2017788520    0.2521025662   -0.5499115776
O        1.4365088435   -0.3893417104   -0.5422365520
F        0.4002245317    1.6485891114   -0.4923029324
H       -1.6568012327    0.4032896929    0.5358546122
H       -0.8932762791   -1.2059783705    0.5871492236
H       -0.2319555039    0.1322555090    1.5594654737
H       -0.2424510939    0.0384647352   -1.5245029591
H        1.8983640233   -0.1501019844    0.2793955871
9    
torsion grid (75,)
C       -0.6842021332   -0.1244769304    0.6049834216
C        0.2035902169    0.2732665351   -0.5593003273
O        1.4545632326   -0.3313646277   -0.5583188280
F        0.3569409130    1.6767330346   -0.5239596003
H       -1.6487610881    0.3852276368    0.5396507811
H       -0.8489238293   -1.2054079195    0.5949816501
H       -0.2122912211    0.1569975062    1.5534722974
H       -0.2410816852    0.0427846742   -1.5297977796
H        1.8279390938   -0.2737172656    0.3373544891
9    
torsion grid (90,)
C       -0.6669225252   -0.1185732014    0.6056365115
C        0.2064984776    0.2948254012   -0.5631847725
O        1.4778516103   -0.2674118453   -0.5559065902
F        0.3153135612    1.7016441890   -0.5538986016
H       -1.6442378385    0.3654752717    0.5390521610
H       -0.8063377813   -1.2034162130    0.6043935308
H       -0.2006429784    0.1840969300    1.5505421933
H       -0.2352502305    0.0451076230   -1.5307696501
H        1.7615012043   -0.4017055113    0.3632013220
9    
torsion grid (105,)
C       -0.6540908123   -0.1108104609    0.6085125624
C        0.2102258543    0.3150045955   -0.5620083085
O        1.5034876447   -0.2013757371   -0.5375121335
F        0.2813199317    1.7218375432   -0.5765275025
H       -1.6458951711    0.3406126004    0.5306037069
H       -0.7632224638   -1.1996220011    0.6210334342
H       -0.2011204711    0.2194150593    1.5503614180
H       -0.2266188761    0.0464766206   -1.5278090958
H        1.7036878631   -0.5314955761    0.3524120231
9    
torsion grid (120,)
C       -0.6806004971   -0.2095691819    0.5221623778
C        0.2520237496    0.4571614028   -0.4703267858
O        1.5599493290   -0.0347988180   -0.4444451322
F        0.3016410033    1.8316548276   -0.1931786791
H       -1.6704290478    0.2507159993    0.4764112166
H       -0.7820935806   -1.2750551549    0.2916698337
H       -0.2919202474   -0.0921427356    1.5396492691
H       -0.1168839050    0.3924067445   -1.4991499771
H        1.6360866955   -0.7203304401    0.2362739812
9    
torsion grid (135,)
C       -0.6801483011   -0.2015920035    0.5311181559
C        0.2563021241    0.4678130089   -0.4572591333
O        1.5813124965    0.0155445975   -0.3815272581
F        0.2819927683    1.8413782252   -0.2018085760
H       -1.6792390662    0.2345566141    0.4555905127
H       -0.7574424446   -1.2737620631    0.3197699591
H       -0.3106945089   -0.0573486435    1.5514853835
H       -0.0973427320    0.3781479910   -1.4911894960
H        1.6130331635   -0.8046950827    0.1328865563
9    
torsion grid (150,)
C       -0.6862040832   -0.1930721976    0.5415605538
C        0.2606065654    0.4727276504   -0.4405848122
O        1.5966754339    0.0537784990   -0.3106648318
F        0.2686880604    1.8443499135   -0.2073095440
H       -1.6906377604    0.2249141405    0.4355711070
H       -0.7439673164   -1.2705344578    0.3500097063
H       -0.3369699541   -0.0252209267    1.5647039562
H       -0.0714086887    0.3549726015   -1.4804693868
H        1.6109912426   -0.8618725790    0.0062493556
9    
torsion grid (165,)
C       -0.6984006243   -0.1841728150    0.5532207981
C        0.2652420951    0.4713596592   -0.4200276757
O        1.6048565907    0.0734456036   -0.2390876088
F        0.2632986525    1.8417253704   -0.2079602255
H       -1.7053362369    0.2186607869    0.4136912462
H       -0.7377497970   -1.2663153885    0.3851407782
H       -0.3727318753    0.0088270026    1.5791964928
H       -0.0413264860    0.3272794145   -1.4656583815
H        1.6299211805   -0.8907669899   -0.1394493197
9    
torsion grid (180,)
C       -0.7152376493   -0.1756673900    0.5651728544
C        0.2701046843    0.4627015892   -0.3976169727
O        1.6064615085    0.0740795898   -0.1697215822
F        0.2623800352    1.8347500187   -0.2084815191
H       -1.7207196282    0.2195734546    0.3944384551
H       -0.7440077254   -1.2612038510    0.4193026201
H       -0.4118357534    0.0381386533    1.5935136237
H       -0.0095303180    0.2940608603   -1.4477171931
H        1.6701583458   -0.8863902811   -0.2898241821
