17   
torsion grid (-165,)
C        0.6794780331   -1.5534332135    0.9434936381
C        0.8844215299   -0.1263246866    1.4228129573
C        0.2544528967   -0.3921980759    0.0780006348
C        1.5244879396   -0.7441053136   -3.4576493155
C        0.7296437951   -1.0904909667   -2.2001053435
N        1.0291608371   -0.1405085933   -1.1162863878
H        1.5657189014   -2.0980944903    0.6321966589
H       -0.0916040625   -2.1560362378    1.4140878773
H        0.2520096766    0.2481288175    2.2228835050
H        1.9000467913    0.2563425313    1.4141898897
H       -0.8271555428   -0.2345911386    0.0098135806
H        1.3263536671   -1.4688016971   -4.2543195492
H        1.2540505396    0.2486990182   -3.8380429681
H        2.5981893172   -0.7426634849   -3.2456448903
H       -0.3488488323   -1.1263468053   -2.4388702114
H        1.0041707099   -2.0915810728   -1.8509976100
H        0.8004590930    0.7921572239   -1.4595567171
17   
torsion grid (-150,)
C        0.7419902257   -1.5512601206    1.0144251391
C        0.8415337978   -0.0889941761    1.4059895491
C        0.2528328512   -0.4758840360    0.0713283531
C        1.5248549781   -0.7395356601   -3.4720286185
C        0.6767464581   -1.0731919808   -2.2463596029
N        1.0438901741   -0.2230418873   -1.1079700629
H        1.6647934542   -2.0523488087    0.7386308240
H        0.0058468438   -2.1730955679    1.5155729878
H        0.1720121660    0.2882677723    2.1736639537
H        1.8290330722    0.3616187065    1.3892925898
H       -0.8347014385   -0.3858654444   -0.0253374934
H        1.2680699913   -1.3930682844   -4.3122814694
H        1.3628609190    0.2959852479   -3.7958725604
H        2.5892309651   -0.8603227990   -3.2479017582
H       -0.3956510204   -0.9907277370   -2.5019373117
H        0.8463745107   -2.1141257270   -1.9481323075
H        0.9453173415    0.7557423172   -1.3750764629
17   
torsion grid (-135,)
C        0.7954991999   -1.5431859022    1.0939351169
C        0.7968866699   -0.0561052145    1.3831982742
C        0.2599284717   -0.5669329625    0.0678201852
C        1.5208946084   -0.7275313033   -3.4899800047
C        0.6325337326   -1.0548059956   -2.2914012004
N        1.0598225649   -0.3145657281   -1.1037363710
H        1.7506277693   -2.0043952220    0.8628601233
H        0.0891295970   -2.1727966549    1.6279233352
H        0.0908090175    0.3315518057    2.1117321432
H        1.7556246810    0.4532599394    1.3544081939
H       -0.8282872742   -0.5406838944   -0.0535525693
H        1.2122493269   -1.3002462934   -4.3707188247
H        1.4595680742    0.3368682053   -3.7482759009
H        2.5669022415   -0.9619351940   -3.2694859023
H       -0.4252180444   -0.8600830532   -2.5486259221
H        0.7039589506   -2.1236233729   -2.0569372823
H        1.0941057033    0.6853626551   -1.2931576454
17   
torsion grid (-120,)
C        0.8470295552   -1.5268640990    1.1727309086
C        0.7466102014   -0.0279707881    1.3565222972
C        0.2757112785   -0.6595647790    0.0674952549
C        1.5140556961   -0.7155042634   -3.5075733283
C        0.5920825008   -1.0304847136   -2.3312212923
N        1.0788914720   -0.4102099307   -1.1028802014
H        1.8335486947   -1.9411340047    0.9898911262
H        0.1702616347   -2.1624779269    1.7377934656
H        0.0011696962    0.3641362966    2.0420601698
H        1.6721776861    0.5398407990    1.3148365997
H       -0.8079544597   -0.7022412799   -0.0781132222
H        1.1560097620   -1.1989066589   -4.4224613856
H        1.5561165292    0.3641362091   -3.6974759240
H        2.5315298828   -1.0629990633   -3.3034379885
H       -0.4410504916   -0.7208255445   -2.5771704280
H        0.5608144370   -2.1144420439   -2.1663389778
H        1.2480312148    0.5856636055   -1.2186513253
17   
torsion grid (-105,)
C        0.9004581907   -1.4998265177    1.2520928923
C        0.6797658802   -0.0038043139    1.3254288888
C        0.3080806818   -0.7565455774    0.0690370155
C        1.5008634841   -0.7026525856   -3.5272465325
C        0.5568893128   -0.9964748683   -2.3629620286
N        1.1175679536   -0.5215656115   -1.1037248103
H        1.9214329493   -1.8479553715    1.1300983156
H        0.2549088386   -2.1458702883    1.8417983622
H       -0.1164364977    0.3777086394    1.9579847093
H        1.5615062807    0.6307296642    1.2780506402
H       -0.7616447657   -0.8874497898   -0.1086404053
H        1.0838412107   -1.0746561213   -4.4688101562
H        1.6634127178    0.3764292037   -3.6397866893
H        2.4737176768   -1.1764194769   -3.3636917699
H       -0.4369633386   -0.5582616730   -2.5739535528
H        0.4073824012   -2.0798024023   -2.2766624098
H        1.4202523139    0.4465689047   -1.1530067205
17   
torsion grid (-90,)
C        0.9641587118   -1.4447175480    1.3411770678
C        0.5765283989    0.0219390962    1.2699762444
C        0.3697864968   -0.8758532834    0.0710734249
C        1.4770628206   -0.6958145477   -3.5493844132
C        0.5273680500   -0.9367542050   -2.3778093041
N        1.2050784606   -0.6982370432   -1.1041809433
H        2.0230128051   -1.6831519842    1.3069383990
H        0.3611060310   -2.1085077721    1.9554925577
H       -0.2910497471    0.3633501162    1.8278254395
H        1.3857848282    0.7468997881    1.2142869329
H       -0.6615423678   -1.1473356988   -0.1489524638
H        0.9785564984   -0.9031172350   -4.5019744742
H        1.8179228679    0.3466543720   -3.5732587228
H        2.3589901799   -1.3385745124   -3.4680684004
H       -0.3770241619   -0.3121394067   -2.5015130303
H        0.1916463512   -1.9807184922   -2.3903183481
H        1.6276490665    0.2262301707   -1.0953042173
17   
torsion grid (-75,)
C        1.0281125795   -1.3709045290    1.4031892718
C        0.4561234380    0.0258904606    1.1781458779
C        0.4295271793   -1.0047872039    0.0707849985
C        1.4521136106   -0.6805146371   -3.5552986030
C        0.5151282558   -0.8579957189   -2.3625490508
N        1.2801807292   -0.9063809310   -1.1073108685
H        2.1097838973   -1.4652930745    1.4415687945
H        0.4879165781   -2.0518956652    2.0551003175
H       -0.4720438478    0.2988664590    1.6735237189
H        1.1682457677    0.8431515498    1.0837305512
H       -0.5393662028   -1.4453000703   -0.1510938363
H        0.8892708077   -0.6812577227   -4.4945702674
H        1.9946768682    0.2710215877   -3.4946424169
H        2.1895485904   -1.4883644326   -3.5879730236
H       -0.2462708301   -0.0571548088   -2.3654878394
H       -0.0241264171   -1.8073892852   -2.4621101662
H        1.8162142861   -0.0415401634   -1.0490017096
17   
torsion grid (-60,)
C        1.0729989821   -1.3008056004    1.4259186421
C        0.3655146454    0.0117285093    1.0873834817
C        0.4552558598   -1.1081004894    0.0706092601
C        1.4391940873   -0.6681902934   -3.5453137831
C        0.5158635936   -0.7908418626   -2.3351066190
N        1.2950053046   -1.0559850344   -1.1127843733
H        2.1582164329   -1.2795836487    1.4834250225
H        0.5981739641   -1.9805162545    2.1275795827
H       -0.5890705856    0.2292109577    1.5597341599
H        0.9946376528    0.8849256049    0.9274706941
H       -0.4611349038   -1.6644810018   -0.1117723178
H        0.8601777488   -0.5120623428   -4.4614925617
H        2.1237536695    0.1821987892   -3.4370639963
H        2.0420555215   -1.5739622060   -3.6621247798
H       -0.1097506379    0.1152644693   -2.2476988935
H       -0.1689509878   -1.6343416456   -2.4823807652
H        1.9430949429   -0.2743061366   -1.0103770047
17   
torsion grid (-45,)
C        1.1073184141   -1.2352602449    1.4280397423
C        0.2928425798   -0.0129446685    1.0059315469
C        0.4632980340   -1.1984863050    0.0734153012
C        1.4327497428   -0.6521838422   -3.5287258890
C        0.5237839678   -0.7344484741   -2.3043652887
N        1.2835319034   -1.1666717609   -1.1190847110
H        2.1880500668   -1.1242477343    1.4715379380
H        0.6965395207   -1.8971806506    2.1847700486
H       -0.6705211863    0.1589259335    1.4792066020
H        0.8453276407    0.8937472412    0.7691764106
H       -0.4085729525   -1.8361066097   -0.0564013591
H        0.8613394840   -0.3688599425   -4.4188024576
H        2.2200594716    0.0986848171   -3.3876689135
H        1.9156038945   -1.6163417994   -3.7151244639
H        0.0167892113    0.2337112499   -2.1451393091
H       -0.2641587767   -1.4762487289   -2.4815316048
H        2.0310542740   -0.4859366663   -0.9792278441
17   
torsion grid (-30,)
C        1.1339553175   -1.1712139171    1.4206623189
C        0.2251751081   -0.0446253988    0.9404051846
C        0.4686693000   -1.2747119788    0.0792043688
C        1.4289989641   -0.6406699760   -3.5133690665
C        0.5378678564   -0.6804123791   -2.2737663589
N        1.2628569303   -1.2447255911   -1.1270132913
H        2.2040484634   -0.9779757433    1.4381351687
H        0.7872665047   -1.8140299605    2.2244770086
H       -0.7405379743    0.0847715675    1.4221287783
H        0.7043248730    0.8821847797    0.6336266967
H       -0.3589928572   -1.9777532404    0.0073974099
H        0.8794854151   -0.2470279477   -4.3748226018
H        2.3007031580    0.0058971244   -3.3529556980
H        1.7931969713   -1.6429467773   -3.7588313554
H        0.1411166336    0.3279960333   -2.0604191924
H       -0.3302437655   -1.3228111511   -2.4649388497
H        2.0971443914   -0.6817936292   -0.9639147718
17   
torsion grid (-15,)
C        1.1543796639   -1.1093092181    1.4084408212
C        0.1617666574   -0.0798018085    0.8918715739
C        0.4730024604   -1.3368407103    0.0882216270
C        1.4280995346   -0.6314442347   -3.4998429005
C        0.5561093296   -0.6280026784   -2.2458767040
N        1.2356127786   -1.3012658016   -1.1356535501
H        2.2084578637   -0.8416856483    1.3918291387
H        0.8708127736   -1.7322257533    2.2518340591
H       -0.8021283960    0.0052022985    1.3866607012
H        0.5671850838    0.8599226152    0.5257183735
H       -0.3091361713   -2.0942017846    0.0760864937
H        0.9101069284   -0.1481982302   -4.3348008756
H        2.3647632031   -0.0856817025   -3.3307764297
H        1.6821432956   -1.6552618546   -3.7909245092
H        0.2641587800    0.4066235313   -1.9923789789
H       -0.3754305414   -1.1723551544   -2.4432817095
H        2.1451320462   -0.8753220511   -0.9711213821
17   
torsion grid (0,)
C        1.1691884805   -1.0492640479    1.3950352827
C        0.0964341372   -0.1209510213    0.8608573971
C        0.4802341460   -1.3857344965    0.0985596986
C        1.4273717489   -0.6305562994   -3.4918202645
C        0.5832882686   -0.5688618463   -2.2200937535
N        1.2088701041   -1.3344406574   -1.1436526007
H        2.2003769604   -0.7076557768    1.3425213045
H        0.9487963613   -1.6562957839    2.2685701487
H       -0.8627096093   -0.0902584741    1.3706250853
H        0.4216443104    0.8300750968    0.4488561391
H       -0.2482203324   -2.1945885770    0.1422891991
H        0.9473763884   -0.0747704075   -4.3040429724
H        2.4184972368   -0.1888931569   -3.3290667154
H        1.5684480495   -1.6673763301   -3.8121747565
H        0.4039376320    0.4851052408   -1.9424386119
H       -0.4034097548   -1.0080045498   -2.4113086694
H        2.1749111623   -1.0573770981   -0.9967101620
17   
torsion grid (15,)
C       -0.4995736716   -1.0480260262    0.9622263035
C        1.0062132973   -1.1633806056    1.0466052495
C        0.3635631784   -0.1383844665    0.1196294275
C        1.5596362864   -0.6091786925   -3.4542153629
C        1.6774876484   -0.6194954953   -1.9308548667
N        0.3981967957   -0.2867107565   -1.3127999285
H       -1.0344147050   -1.8443296976    0.4503618992
H       -1.0392516045   -0.6143678776    1.7995257297
H        1.5042074107   -0.8041205032    1.9428306609
H        1.4658654473   -2.0357405023    0.5924896690
H        0.4297026929    0.8944194189    0.4621017556
H        2.5214028267   -0.8487392786   -3.9198404936
H        0.8310630449   -1.3540987038   -3.7979607922
H        1.2317437748    0.3723859852   -3.8098814938
H        2.0753421557   -1.5957026682   -1.6005461646
H        2.4085040812    0.1332976208   -1.6129884380
H       -0.3646533693   -0.8576759364   -1.6606774058
17   
torsion grid (30,)
C       -0.4446188466   -1.1210940101    0.9492439516
C        1.0614011887   -1.0454720070    1.0461120804
C        0.3122967058   -0.1059558585    0.1157475192
C        1.5726005250   -0.5984046904   -3.4412149697
C        1.6260590172   -0.7286039198   -1.9192934035
N        0.3913794248   -0.2300723991   -1.3204897651
H       -0.8660149948   -1.9749429445    0.4245563884
H       -1.0434938241   -0.7628621447    1.7821406485
H        1.5036174377   -0.6221240013    1.9432836551
H        1.6325491064   -1.8541286386    0.6020255707
H        0.2450579176    0.9229021183    0.4699321706
H        2.5010805564   -0.9613894732   -3.8947994192
H        0.7476136421   -1.1890334357   -3.8586083017
H        1.4216237833    0.4451338791   -3.7337405487
H        1.8481201357   -1.7785654347   -1.6559369687
H        2.4547904154   -0.1290410170   -1.5268282137
H       -0.4290269006   -0.6861942082   -1.7061246454
17   
torsion grid (45,)
C       -0.3621323727   -1.2146904517    0.8950462572
C        1.1160116984   -0.9241519739    1.0453461026
C        0.2741001218   -0.0688091656    0.1250000141
C        1.5702971071   -0.6250786690   -3.4157713173
C        1.5552546139   -0.8050197289   -1.8980039597
N        0.4192383705   -0.0891185813   -1.3172959804
H       -0.6324897530   -2.1007614059    0.3257291697
H       -1.0318970124   -0.9811827154    1.7182086231
H        1.4669513416   -0.4729060156    1.9687715672
H        1.8095551280   -1.6317192523    0.6038211847
H        0.0455522969    0.9223429784    0.5150501331
H        2.4305720342   -1.1382957371   -3.8584380280
H        0.6644716894   -1.0426702508   -3.8724730875
H        1.6207905459    0.4364884828   -3.6761253147
H        1.5612150140   -1.8861743913   -1.6665863250
H        2.4725960627   -0.3872339156   -1.4701981407
H       -0.4450515961   -0.4108673923   -1.7460751496
17   
torsion grid (60,)
C       -0.2821681716   -1.2951627185    0.8243554670
C        1.1439880101   -0.8342480021    1.0700012588
C        0.2579115468   -0.0513435683    0.1347386268
C        1.5424284689   -0.6638256053   -3.3966517513
C        1.5052436076   -0.8445184787   -1.8795573465
N        0.4933393661    0.0376021344   -1.2944829067
H       -0.4075682247   -2.1888465398    0.2179854209
H       -1.0189784047   -1.1749753778    1.6138628397
H        1.3905354459   -0.3843826788    2.0272974899
H        1.9371693208   -1.4429697665    0.6496378545
H       -0.1100800821    0.8884696151    0.5427627078
H        2.3233897123   -1.2887851865   -3.8420470192
H        0.5872125928   -0.9507065404   -3.8535247409
H        1.7402449379    0.3812929459   -3.6536966204
H        1.3437002378   -1.9140385951   -1.6499618978
H        2.4789860115   -0.5733634357   -1.4585582527
H       -0.3903190853   -0.1200463872   -1.7761553811
17   
torsion grid (75,)
C       -0.2039574383   -1.3552568515    0.7996840739
C        1.1577256948   -0.7470424018    1.1056214384
C        0.2387108949   -0.0606791505    0.1313076345
C        1.5331227272   -0.6701577509   -3.3938083539
C        1.4443238525   -0.9032539080   -1.8860400536
N        0.5485452437    0.0820703566   -1.2780355674
H       -0.2103589686   -2.2633877621    0.2032787969
H       -0.9822835890   -1.3074395494    1.5565399217
H        1.3154298927   -0.2782407266    2.0726781393
H        2.0264178058   -1.2723731644    0.7232791407
H       -0.2417977040    0.8364613077    0.5162824076
H        2.2309935557   -1.3770761806   -3.8541092754
H        0.5565123303   -0.8073736435   -3.8742285228
H        1.8750570563    0.3475870708   -3.6054387629
H        1.1371858840   -1.9484829120   -1.7006781263
H        2.4391577394   -0.7809532716   -1.4454122172
H       -0.3297496873    0.0857503523   -1.7949149249
17   
torsion grid (90,)
C       -0.1031238808   -1.4056067643    0.8133671667
C        1.1735922099   -0.6386362229    1.1406240784
C        0.2144522242   -0.0861792592    0.1220304305
C        1.5581038580   -0.6540903554   -3.3946789093
C        1.3341397404   -0.9869746441   -1.9197969125
N        0.5649655339    0.0777652359   -1.2750813616
H        0.0116231058   -2.3275300858    0.2515484888
H       -0.9042614433   -1.4254839742    1.5476368948
H        1.2491402602   -0.1326933883    2.0989546404
H        2.1074820963   -1.0711708982    0.7963551631
H       -0.3714885000    0.7625538277    0.4672810342
H        2.1616907431   -1.4286868473   -3.8789799400
H        0.6053629198   -0.5899836676   -3.9345436813
H        2.0712712569    0.3067215282   -3.4980273864
H        0.8531911840   -1.9779329701   -1.8409755123
H        2.3049062982   -1.0642998997   -1.4193551981
H       -0.2960123164    0.2223801997   -1.8003532466
17   
torsion grid (105,)
C        0.0095920697   -1.4471985201    0.8204280244
C        1.1831337436   -0.5360211577    1.1621252303
C        0.1879553103   -0.1092118642    0.1167073624
C        1.5909318818   -0.6557648282   -3.3803832530
C        1.2097769745   -1.0506301007   -1.9539452694
N        0.5681898705    0.0729679743   -1.2718369023
H        0.2387314876   -2.3556403043    0.2724854362
H       -0.7975875953   -1.5530722995    1.5408305513
H        1.1828709493   -0.0166271439    2.1163332295
H        2.1676082943   -0.8544580175    0.8318847882
H       -0.4943335581    0.6756065924    0.4331709624
H        2.0886616507   -1.4859141156   -3.8925564435
H        0.7025974722   -0.3892644700   -3.9660718283
H        2.2628190060    0.2076260711   -3.3741330983
H        0.5755803858   -1.9539036801   -1.9807530057
H        2.1170223250   -1.3192446866   -1.4016259599
H       -0.2585149779    0.3509023652   -1.7966540757
17   
torsion grid (120,)
C        0.0975057503   -1.4779429073    0.8162237607
C        1.1652106009   -0.4652626448    1.2056273745
C        0.1780763656   -0.1304665520    0.1161284853
C        1.5866541063   -0.6727234989   -3.3818048112
C        1.1397740953   -1.0844076811   -1.9796575321
N        0.6208215362    0.0723995646   -1.2528959211
H        0.4271959579   -2.3608561414    0.2782916792
H       -0.7265425500   -1.6593934959    1.5017295495
H        1.0813379907    0.0450358037    2.1612035945
H        2.1858058453   -0.6813484207    0.9010487936
H       -0.5878938998    0.5879443692    0.3955708221
H        1.9984619296   -1.5299933685   -3.9245250344
H        0.7431348107   -0.2844792755   -3.9658608745
H        2.3496257109    0.1096809830   -3.3289168193
H        0.4070225533   -1.9072299765   -2.0519286528
H        2.0027558509   -1.4804548383   -1.4312100041
H       -0.1339113638    0.4996498948   -1.7830186611
17   
torsion grid (135,)
C        0.1898521298   -1.5027479181    0.8132049870
C        1.1172832099   -0.3943231516    1.2862249636
C        0.1947957706   -0.1564094821    0.1139865461
C        1.5524885615   -0.6904618121   -3.4071484024
C        1.0934292087   -1.1129681460   -2.0124609947
N        0.7348559875    0.0645507943   -1.2206103459
H        0.6439564176   -2.3500567640    0.3102271027
H       -0.6696191787   -1.7619827172    1.4261020976
H        0.9077596379    0.0980126385    2.2320848961
H        2.1733533854   -0.5026040439    1.0537763367
H       -0.6644589517    0.4757389043    0.3242553685
H        1.8550890829   -1.5625642750   -3.9958944856
H        0.7453646727   -0.1858196280   -3.9526849281
H        2.3994965313   -0.0006654748   -3.3418869318
H        0.2650462905   -1.8379974060   -2.0961975478
H        1.9177301567   -1.6340554177   -1.5108657699
H        0.0786123774    0.6345057139   -1.7461071435
17   
torsion grid (150,)
C        0.3130779324   -1.5233302904    0.8250719041
C        1.0443770198   -0.3090179586    1.3770523875
C        0.2353169212   -0.1951688124    0.1060927417
C        1.5105221781   -0.7019628987   -3.4400024135
C        1.0287546415   -1.1389451330   -2.0576677274
N        0.8886144907    0.0321495074   -1.1788574092
H        0.9192084895   -2.3122462085    0.3926090551
H       -0.5745966323   -1.8779176539    1.3414778374
H        0.6721353011    0.1600937845    2.2840047439
H        2.1235890799   -0.2880726674    1.2564701651
H       -0.7212120795    0.3152450704    0.2117021404
H        1.6617139861   -1.5701846259   -4.0896125105
H        0.7775936141   -0.0467226135   -3.9273730579
H        2.4552147061   -0.1545183861   -3.3636609301
H        0.0905242334   -1.7123979423   -2.1514526949
H        1.7710607069   -1.8175314488   -1.6236986443
H        0.3391407010    0.7206800917   -1.6861498388
17   
torsion grid (165,)
C        0.4678844749   -1.5413245824    0.8560671043
C        0.9797244386   -0.2242287899    1.4225795139
C        0.2610979007   -0.2540497689    0.0959743913
C        1.5083194540   -0.7166000518   -3.4516127747
C        0.9076766703   -1.1364796767   -2.1112179086
N        0.9806687098   -0.0187904488   -1.1487026694
H        1.2151453069   -2.2385604663    0.4917697856
H       -0.3978347073   -2.0087182048    1.3157117688
H        0.4740513082    0.2087289269    2.2815541912
H        2.0514064678   -0.0562603490    1.3805845206
H       -0.7694483027    0.1069798703    0.1144042447
H        1.4979888512   -1.5520217074   -4.1593535748
H        0.9406299353    0.1068424194   -3.9029090765
H        2.5422225844   -0.3816443343   -3.3218559588
H       -0.1254923789   -1.4959144251   -2.2603497776
H        1.4779544714   -1.9794696896   -1.7103058253
H        0.5230401055    0.7616630928   -1.6163322059
17   
torsion grid (180,)
C        0.5959585956   -1.5504292962    0.8909616554
C        0.9288100400   -0.1671116235    1.4303041907
C        0.2603105252   -0.3193157621    0.0867445404
C        1.5208234750   -0.7377448937   -3.4505546856
C        0.7992128621   -1.1111403785   -2.1570014021
N        1.0113234105   -0.0722215767   -1.1299742917
H        1.4325665181   -2.1551705391    0.5550285386
H       -0.2185142039   -2.1077866407    1.3435360459
H        0.3442011323    0.2245929848    2.2582060789
H        1.9735054643    0.1268959259    1.4171431615
H       -0.8066742493   -0.0795381482    0.0543107062
H        1.3953854273   -1.5215062958   -4.2049609124
H        1.1256432384    0.1946006116   -3.8727386697
H        2.5905939442   -0.5972358872   -3.2670341761
H       -0.2724476425   -1.2823791500   -2.3635215939
H        1.1971261086   -2.0554918450   -1.7735895554
H        0.6572106440    0.7911343290   -1.5408538819
