28   
torsion grid (-165,)
C       -1.5656546689   -2.2319765044   -1.5499291150
C       -2.3204914897   -4.7563981854   -3.4079530394
C       -3.6048939639   -4.1643692636   -3.9399015778
C       -0.7165363025   -0.5034976961    1.0951160399
C        0.7780043155    1.2296881012    0.5370950725
C       -3.1378726910   -3.8287189110   -2.5441674840
C        0.3652541186    0.3877107748    1.7411693298
C       -1.1519988276   -0.7487919871   -1.4205781171
N       -2.6473013601   -2.4853427271   -2.3020821871
N       -0.1677871232   -0.7190825762   -0.2968998061
O       -0.8586119803   -3.0732555074   -0.9860921938
O        0.8753299213    0.2569243573   -0.5333746551
O       -0.1005743094    1.2103658833    2.7763105254
H       -2.3009262101   -5.8030404126   -3.1242875796
H       -1.3860586018   -4.3733436038   -3.8041273793
H       -3.5223422290   -3.3923864980   -4.6998193041
H       -4.4808171193   -4.7979861430   -4.0304564935
H       -0.8654334396   -1.4800335898    1.5555911471
H       -1.6593390699    0.0406474986    1.0299595823
H        0.0320307314    1.9979176034    0.3083436919
H        1.7706627624    1.6707406586    0.6210665264
H       -3.6746290478   -4.2542358997   -1.7010862305
H        1.2133787167   -0.2315011071    2.0564899693
H       -1.9730079832   -0.0622154864   -1.2135467675
H       -0.6140727034   -0.4231633037   -2.3137082633
H       -3.1892885490   -1.7070321821   -2.6627932082
H        0.2821603369   -1.6571849641   -0.3407025662
H        0.0757881463    0.8034839018    3.6388221078
28   
torsion grid (-150,)
C       -1.5948899159   -2.2828482148   -1.5308365441
C       -2.3249741869   -4.7753621503   -3.4460893116
C       -3.6351797864   -4.2018608604   -3.9336435598
C       -0.7736941195   -0.6127086327    1.1412876511
C        0.8169298185    1.0975094131    0.7129666635
C       -3.1448549568   -3.8910157690   -2.5402395392
C        0.2925008459    0.2245859781    1.8632266148
C       -1.2143535775   -0.7949621273   -1.3682372045
N       -2.6811526729   -2.5427840772   -2.2743322982
N       -0.2250614015   -0.7679245850   -0.2488723704
O       -0.8592856228   -3.1214514279   -1.0004219158
O        0.7712159985    0.2503126161   -0.4689376299
O       -0.3572276063    0.9633167401    2.8701526054
H       -2.2734532608   -5.8282017465   -3.1907944339
H       -1.4094269139   -4.3586786321   -3.8523245327
H       -3.5887565672   -3.4085639798   -4.6744217614
H       -4.4972110399   -4.8546055804   -4.0215613210
H       -0.9440243783   -1.6045764889    1.5585477819
H       -1.7057824031   -0.0480307166    1.0990158431
H        0.1695447059    1.9684055967    0.5747671717
H        1.8591139289    1.4018515146    0.8115633583
H       -3.6513937761   -4.3514196226   -1.6967752037
H        1.0861791840   -0.4174669333    2.2606391552
H       -2.0472453704   -0.1298324698   -1.1396557215
H       -0.6885844160   -0.4363917550   -2.2558899115
H       -3.2516988149   -1.7690509786   -2.5990679686
H        0.2526462823   -1.6904641040   -0.3217385377
H        0.2485096829    1.1339716597    3.6086543130
28   
torsion grid (-135,)
C       -1.4737505047   -2.3401441946   -1.4113262050
C       -2.4897538795   -4.4819672013   -3.5957007216
C       -3.8084078408   -3.7959875966   -3.8678382570
C       -0.3418197810   -1.0136029687    1.3960147852
C        0.7004124528    1.0028181255    0.5468766857
C       -3.1846281435   -3.7198001649   -2.4954065769
C       -0.0641054640    0.4548990241    1.7746403547
C       -1.0124640259   -0.9072998344   -1.0592239605
N       -2.6357097863   -2.4454120625   -2.0732885146
N        0.0805205728   -1.1008576708   -0.0510617484
O       -0.7332624034   -3.2741428662   -1.0884919371
O        1.1472841179   -0.1665376352   -0.1885153914
O       -1.2824233620    1.1445093084    1.9840294375
H       -2.4663503982   -5.5625993381   -3.5065817177
H       -1.5940412215   -4.0394372394   -4.0184604007
H       -3.7883875164   -2.9005319123   -4.4826552640
H       -4.7052778306   -4.3974527693   -3.9716289108
H        0.2785534703   -1.7168738463    1.9494031553
H       -1.3939565822   -1.2769469388    1.4929085984
H        0.0303237751    1.6101620708   -0.0689988080
H        1.6096856419    1.5559420657    0.7802027081
H       -3.6377105446   -4.2870033146   -1.6873346505
H        0.5644986679    0.4783870203    2.6686426114
H       -1.7948384297   -0.2709296248   -0.6445391129
H       -0.5582212715   -0.4286412404   -1.9294390825
H       -3.1940393274   -1.6114458441   -2.2228632474
H        0.4614651926   -2.0473316792   -0.2736599570
H       -1.1664278550    1.8370957859    2.6530810866
28   
torsion grid (-120,)
C       -1.4400389954   -2.3383295825   -1.4112993175
C       -2.5219154289   -4.4414242046   -3.6042366570
C       -3.8524434759   -3.7569029382   -3.8154299854
C       -0.2484347461   -1.0735641496    1.3824411834
C        0.7600536878    0.9829810816    0.6092884546
C       -3.1809616387   -3.7060532099   -2.4643694180
C       -0.1692091070    0.4205481629    1.7158198258
C       -0.9738718833   -0.9113119132   -1.0493023799
N       -2.6234178622   -2.4377301927   -2.0359824526
N        0.1442658576   -1.1182246477   -0.0698017762
O       -0.6850651177   -3.2746888236   -1.1306707740
O        1.1887571488   -0.1615405884   -0.1878706260
O       -1.4733752705    0.9782367275    1.6436219776
H       -2.4910507870   -5.5235819117   -3.5389251928
H       -1.6434602081   -3.9857466761   -4.0486554005
H       -3.8582496241   -2.8484415386   -4.4111603218
H       -4.7494623285   -4.3610554951   -3.9008445583
H        0.4908197690   -1.6623071667    1.9245319587
H       -1.2466009224   -1.4876955255    1.5165833518
H        0.2083981085    1.6869510711   -0.0190398860
H        1.6836002575    1.4329620545    0.9730088906
H       -3.6025684946   -4.2924589200   -1.6529484137
H        0.2647221592    0.5525753740    2.7104762501
H       -1.7415295355   -0.2778640001   -0.6037586109
H       -0.5376522962   -0.4209569575   -1.9222582800
H       -3.1922642183   -1.6045808811   -2.1447581516
H        0.5384317795   -2.0502276491   -0.3254002323
H       -1.5280667248    1.7770257056    2.1921139238
28   
torsion grid (-105,)
C       -1.4451034065   -2.3074110545   -1.3985103267
C       -2.5084832285   -4.4238367619   -3.5879381365
C       -3.8610497865   -3.7749902312   -3.7698127243
C       -0.2118077349   -1.0498544388    1.3783194909
C        0.8605010106    0.9991391744    0.7330399479
C       -3.1667973322   -3.7154906674   -2.4306313228
C       -0.1877015803    0.4376870697    1.7197082517
C       -1.0094175368   -0.8723255548   -1.0360770720
N       -2.6366640092   -2.4356545904   -2.0023542939
N        0.1377871833   -1.0549759058   -0.0843127043
O       -0.6616517143   -3.2266831000   -1.1376951993
O        1.1503753489   -0.0685123565   -0.2302659281
O       -1.4892888887    0.9607569617    1.4829948284
H       -2.4465199056   -5.5052007402   -3.5320558270
H       -1.6511561751   -3.9405106343   -4.0442552762
H       -3.9027596295   -2.8626611177   -4.3581577577
H       -4.7423596643   -4.4032654635   -3.8441049289
H        0.5719767145   -1.6059425175    1.8928104572
H       -1.1840373115   -1.5147654058    1.5342174044
H        0.4642059548    1.8620556620    0.1943657259
H        1.8192449134    1.2372885677    1.1950599934
H       -3.5574029339   -4.3196981211   -1.6167467498
H        0.1199140378    0.5826230509    2.7590499184
H       -1.7786595614   -0.2582490254   -0.5685337394
H       -0.6028011071   -0.3646859251   -1.9132553564
H       -3.2288999080   -1.6171512687   -2.0960981956
H        0.5503928249   -1.9730220382   -0.3610935580
H       -1.6005055498    1.8040755513    1.9512009079
28   
torsion grid (-90,)
C       -1.1052489897   -0.4773211675   -1.0004739392
C       -2.7415128957   -2.4253902882   -2.9840505651
C       -3.9394380768   -1.5148655208   -3.1238016679
C        0.5652492846    0.5915657330    1.6047616692
C        2.1819583358    2.1954816870    0.9280080521
C       -3.1518269406   -1.5372797741   -1.8361847703
C        1.0013602476    2.0222289676    1.8932138967
C       -0.3538748241    0.8471986915   -0.7612540099
N       -2.3374275100   -0.3791886934   -1.5238144419
N        0.8014997095    0.4748950381    0.1221540291
O       -0.5170367427   -1.5290555718   -0.7254891765
O        1.9660504936    1.2446820729   -0.1689578642
O       -0.0966440468    2.8709659454    1.5841881323
H       -2.9015401378   -3.4913128861   -2.8635250577
H       -1.8382667757   -2.1572878931   -3.5217638224
H       -3.8338362505   -0.6446802339   -3.7655794336
H       -4.9349980394   -1.9454706542   -3.1038527772
H        1.2057492513   -0.1421820636    2.0946001373
H       -0.4828474603    0.3998946991    1.8285131454
H        2.2177802039    3.1943363810    0.4914906228
H        3.1401097348    1.9383903584    1.3849909603
H       -3.5988455054   -2.0043360890   -0.9632147835
H        1.3183102025    2.1273481790    2.9354311705
H       -0.9345428880    1.6356704655   -0.2843959889
H        0.0813256048    1.2149162411   -1.6927287549
H       -2.7490487761    0.5409680623   -1.6393426538
H        1.0013087163   -0.5167321165   -0.1309337617
H        0.0545887463    3.7585813402    1.9481180484
28   
torsion grid (-75,)
C       -1.1581418765   -0.5521357865   -1.1143656864
C       -2.7517984285   -2.5492597034   -3.0775469547
C       -3.9764510804   -1.6743383016   -3.2121281920
C        0.4525411957    0.5099194997    1.4887427884
C        2.1908729080    2.0016488213    0.9745756414
C       -3.1817440695   -1.6721348712   -1.9284043082
C        0.9534741815    1.8981723453    1.8659708484
C       -0.4468523449    0.7939940769   -0.8827740106
N       -2.3996395091   -0.4906319640   -1.6224662506
N        0.7191045476    0.4663334007   -0.0009395224
O       -0.5337562448   -1.5852205253   -0.8491063541
O        1.8084694313    1.3564805432   -0.2771370693
O       -0.0749730758    2.8061496113    1.4990711263
H       -2.8801649822   -3.6192381906   -2.9549928835
H       -1.8592856733   -2.2558116673   -3.6198924071
H       -3.8998145731   -0.8018469133   -3.8548649643
H       -4.9587477931   -2.1341324002   -3.1866494946
H        1.0354912357   -0.2844639300    1.9543711133
H       -0.6102691099    0.3628907179    1.6711376579
H        2.4605500974    3.0247948396    0.7112408737
H        3.0504110489    1.4763623700    1.4019672562
H       -3.6108599342   -2.1506911436   -1.0526478330
H        1.2082394164    1.9533395987    2.9293864004
H       -1.0443800794    1.5699303943   -0.4058962407
H       -0.0263088335    1.1723364625   -1.8169723249
H       -2.8408274088    0.4167217565   -1.7299371890
H        0.9926452757   -0.4978217519   -0.2790349052
H        0.1276212234    3.6957603798    1.8326355364
28   
torsion grid (-60,)
C       -1.1909125141   -0.5434616142   -1.0726608865
C       -2.7175452745   -2.5867795001   -3.0488096052
C       -3.9809413184   -1.7647132495   -3.1571508073
C        0.3970886099    0.5546595225    1.5387139237
C        2.2181195917    1.8971016664    1.0381872243
C       -3.1700387066   -1.7421081167   -1.8840804303
C        0.9782493378    1.9131528759    1.9346690784
C       -0.5361407279    0.8300017974   -0.8348857220
N       -2.4368265115   -0.5307838723   -1.5737353584
N        0.6477365815    0.5467827092    0.0326872869
O       -0.5227758230   -1.5515136515   -0.8177491647
O        1.6845364884    1.5082614422   -0.2497305000
O       -0.0144326205    2.8292088628    1.4947335454
H       -2.7973826001   -3.6626791310   -2.9374861562
H       -1.8463359291   -2.2480740540   -3.5993960137
H       -3.9508618644   -0.8828786660   -3.7909680332
H       -4.9419685733   -2.2670175187   -3.1243996911
H        0.9320496537   -0.2889018376    1.9730873916
H       -0.6720961114    0.4691694360    1.7211101903
H        2.6749092232    2.8740717394    0.8730896814
H        2.9712730574    1.1819927401    1.3857567115
H       -3.5657646429   -2.2492171139   -1.0086923683
H        1.2075217516    1.9802216053    3.0022987438
H       -1.1614650035    1.5757117718   -0.3463063729
H       -0.1417357238    1.2356174631   -1.7693310932
H       -2.9158362941    0.3578909722   -1.6748489788
H        0.9653010488   -0.3992292746   -0.2591305923
H        0.2229737180    3.7375684751    1.7470133037
28   
torsion grid (-45,)
C       -1.1898536993   -0.5338526027   -1.0990248602
C       -2.6259098741   -2.6121928758   -3.1084469191
C       -3.9335668821   -1.8583428965   -3.1826432792
C        0.3813977754    0.6294806451    1.5472035719
C        2.2358846687    1.8304667935    0.9863685143
C       -3.1092657097   -1.8215634399   -1.9185336715
C        1.0131995452    1.9907239790    1.9054340061
C       -0.6112387160    0.8687351668   -0.8295430166
N       -2.4399523666   -0.5792784286   -1.5867423649
N        0.5921165800    0.6285930403    0.0184492237
O       -0.4625970762   -1.5087128144   -0.8782214514
O        1.6118397266    1.6187077165   -0.2897066685
O       -0.0012787303    2.8393381613    1.3777061586
H       -2.6456753520   -3.6931759153   -3.0223281488
H       -1.7813743516   -2.2133998919   -3.6603192917
H       -3.9594868021   -0.9613123967   -3.7949480967
H       -4.8653007545   -2.4131986803   -3.1514812292
H        0.8985662302   -0.2359853019    1.9584826721
H       -0.6860982463    0.5797629221    1.7497133034
H        2.8416950054    2.7298604717    0.8557093321
H        2.8757630850    0.9941882930    1.2853874899
H       -3.4657837687   -2.3702127846   -1.0513744580
H        1.2307721313    2.1265599113    2.9672000281
H       -1.2759679874    1.5641632200   -0.3209119470
H       -0.2494719970    1.3185932223   -1.7571313730
H       -2.9695872100    0.2831388067   -1.6582125680
H        0.9293048062   -0.3105160120   -0.2797616084
H        0.2328524405    3.7767905291    1.4946631013
28   
torsion grid (-30,)
C       -1.2331537833   -0.5093958947   -1.0595083456
C       -2.5867074103   -2.5542768220   -3.1567675137
C       -3.9189910133   -1.8429784108   -3.2100049531
C        0.3876358275    0.6864181180    1.6420718746
C        2.2666271552    1.6957036251    0.9575780725
C       -3.1032938761   -1.8285559928   -1.9398732823
C        1.1009986171    2.0507231336    1.9179936779
C       -0.7070179391    0.9014505953   -0.7239082173
N       -2.4785404557   -0.5783764355   -1.5546749774
N        0.5213456369    0.6677410941    0.0835754123
O       -0.4723392815   -1.4670618424   -0.8782695695
O        1.5690069219    1.6351415317   -0.2843472517
O        0.0396408501    2.8181401266    1.3465097544
H       -2.5699310534   -3.6378757008   -3.1135029745
H       -1.7532873557   -2.1054795815   -3.6866893140
H       -3.9722218009   -0.9237110856   -3.7865168380
H       -4.8313619688   -2.4299426833   -3.2071074856
H        0.8804620883   -0.2031681761    2.0301956829
H       -0.6712934448    0.6922133546    1.8887702157
H        3.0125279774    2.4837416432    0.8204130957
H        2.7708953439    0.7644125734    1.2273478097
H       -3.4455125826   -2.4228174868   -1.0973783306
H        1.3582606794    2.2691258136    2.9549382406
H       -1.3964712217    1.5345510189   -0.1702620956
H       -0.3872851788    1.4170128492   -1.6325529768
H       -3.0379351670    0.2672046565   -1.5929711828
H        0.8350142539   -0.2809261687   -0.2206840317
H        0.2703860328    3.7641407172    1.3018526113
28   
torsion grid (-15,)
C       -1.2373377811   -0.4952545386   -1.0484276130
C       -2.5496441242   -2.5349078724   -3.1794859328
C       -3.9004567561   -1.8580638349   -3.2106482474
C        0.3966640511    0.7305888520    1.6940339228
C        2.2643925510    1.6065756622    0.9417995268
C       -3.0769929273   -1.8467867669   -1.9455057969
C        1.1446379832    2.1217886750    1.9044909594
C       -0.7476190394    0.9233976169   -0.6858207669
N       -2.4825584929   -0.5882513744   -1.5398653657
N        0.4908977168    0.7076935608    0.1049079745
O       -0.4505677087   -1.4355373377   -0.8893998649
O        1.5663291212    1.6727258775   -0.2901098486
O        0.0000174946    2.7803613929    1.3400388591
H       -2.5041751545   -3.6183255504   -3.1575639677
H       -1.7318280450   -2.0540741854   -3.7056149242
H       -3.9815920794   -0.9295484288   -3.7687971168
H       -4.7970772018   -2.4688188194   -3.2136533601
H        0.8808750053   -0.1704442066    2.0651062919
H       -0.6577808360    0.7563722178    1.9557858262
H        3.1109182878    2.2911226942    0.8201079933
H        2.6482969489    0.6193951149    1.2005444601
H       -3.3978496706   -2.4660408031   -1.1126631804
H        1.4266189713    2.4067886085    2.9170069505
H       -1.4544419078    1.5226918560   -0.1174840614
H       -0.4515777333    1.4649216751   -1.5876348434
H       -3.0648114161    0.2423919922   -1.5579303538
H        0.8083681281   -0.2397931182   -0.2022370411
H        0.1740038600    3.7294029903    1.1897904573
28   
torsion grid (135,)
C       -1.5160072418   -2.1751499524   -1.5918065167
C       -2.1720594146   -4.6770359339   -3.5090203144
C       -3.3957235106   -4.0575559284   -4.1428741170
C       -0.7966599394   -0.4209222065    1.1604719284
C        0.7038258627    1.2314409002    0.5076625271
C       -3.0393474934   -3.7357143017   -2.7115234812
C        0.4325050013    0.3190724424    1.7246056757
C       -1.0941809202   -0.6964391416   -1.4096111205
N       -2.5437253829   -2.4031471708   -2.4225986191
N       -0.1721183963   -0.7046667888   -0.2392450282
O       -0.8630285409   -3.0328319302   -0.9897261014
O        0.9929161774    0.2000217889   -0.4573582959
O        0.9497176266    0.5618967512    3.0034697441
H       -2.1970769499   -5.7245121179   -3.2289377019
H       -1.2003608621   -4.3122042204   -3.8243813407
H       -3.2349140123   -3.2850305762   -4.8895771242
H       -4.2737838170   -4.6727978806   -4.3084373306
H       -1.0162227134   -1.3889484703    1.6114009805
H       -1.7029255394    0.1698662287    1.0212051762
H       -0.1211443748    1.8704011570    0.1746384334
H        1.6241661900    1.8086138756    0.6069730185
H       -3.6525704175   -4.1525887258   -1.9176953384
H        1.1786848374   -0.4529450373    1.4942088556
H       -1.9250876530   -0.0129368958   -1.2349432913
H       -0.5118685916   -0.3567994913   -2.2688224522
H       -3.0442647085   -1.6125062835   -2.8149960413
H        0.2085034307   -1.6775384902   -0.2341538831
H        0.4314050006    1.2173672682    3.5076888622
28   
torsion grid (150,)
C       -1.6067442633   -2.2054101204   -1.5253487542
C       -2.2933052751   -4.7835637039   -3.3314364277
C       -3.5084763203   -4.1767582864   -3.9933447719
C       -0.9122768678   -0.3815917188    1.1416864920
C        0.5827960918    1.2725049195    0.5083855578
C       -3.1469970026   -3.7939925191   -2.5785826510
C        0.2925172028    0.3867786239    1.7194473039
C       -1.1562374206   -0.7291215283   -1.4185103783
N       -2.6323820659   -2.4566286561   -2.3519717286
N       -0.2543213346   -0.6897705879   -0.2319951205
O       -0.9756275346   -3.0434130878   -0.8734896758
O        0.8872587504    0.2297485569   -0.4453639334
O        0.5889344998    0.9661860924    2.9579231811
H       -2.3328704422   -5.8166153215   -3.0035087445
H       -1.3168431698   -4.4472776348   -3.6635137493
H       -3.3371874198   -3.4421670713   -4.7751820978
H       -4.3951984268   -4.7865428075   -4.1303838680
H       -1.1428115809   -1.3422084698    1.6030196389
H       -1.8164250710    0.2053238482    0.9754038937
H       -0.2428725010    1.9060787450    0.1701570909
H        1.4985071345    1.8542798897    0.6171146945
H       -3.7655490694   -4.1648170004   -1.7662890651
H        1.0779228659   -0.3800255289    1.6141141302
H       -1.9716173902   -0.0159029711   -1.2983719112
H       -0.5485731062   -0.4516954488   -2.2827253292
H       -3.1155229709   -1.6784469763   -2.7886595318
H        0.1433651080   -1.6527332502   -0.1923314206
H        0.4919437520    0.3117851800    3.6695790250
28   
torsion grid (165,)
C       -1.5858428060   -2.2202959653   -1.5179932069
C       -2.2887324537   -4.7821155840   -3.3414401895
C       -3.5279056648   -4.1812268651   -3.9630026608
C       -0.8449739670   -0.4172605065    1.1368053772
C        0.6382685640    1.2668867138    0.5270017687
C       -3.1347820527   -3.8144643904   -2.5523634495
C        0.3289152867    0.3845638109    1.7313276974
C       -1.1475743505   -0.7412963348   -1.4080240863
N       -2.6306805125   -2.4742508552   -2.3196502937
N       -0.2224004021   -0.7015659638   -0.2379544973
O       -0.9280824280   -3.0579595872   -0.8924590648
O        0.8876894054    0.2341359704   -0.4572396649
O        0.3631540576    1.0749458154    2.9425921765
H       -2.3071437724   -5.8202967492   -3.0281857807
H       -1.3253635738   -4.4286387276   -3.6933472946
H       -3.3859956671   -3.4332561769   -4.7380222421
H       -4.4102538095   -4.8002218003   -4.0863349611
H       -1.0572763555   -1.3797534606    1.6027944105
H       -1.7578259499    0.1646624111    1.0037980664
H       -0.1735772797    1.9345021601    0.2213458525
H        1.5756315379    1.8143062242    0.6249105225
H       -3.7277854861   -4.2046603984   -1.7301675240
H        1.1611067241   -0.3369169594    1.7459476413
H       -1.9653187367   -0.0348508279   -1.2656968430
H       -0.5579655836   -0.4525279927   -2.2810371587
H       -3.1339657545   -1.6964645132   -2.7336648484
H        0.1927463061   -1.6574704552   -0.2211558514
H        0.3581240378    0.4516147070    3.6871712833
28   
torsion grid (180,)
C       -1.5658166395   -2.2408702112   -1.5510986443
C       -2.3189226327   -4.7813691689   -3.3890891048
C       -3.5855419162   -4.1802858822   -3.9525016153
C       -0.7799706163   -0.4812728988    1.1049918836
C        0.6957264669    1.2369442850    0.5216620955
C       -3.1394399605   -3.8311698059   -2.5532559439
C        0.3417270744    0.3740405294    1.7262319642
C       -1.1380446732   -0.7604174972   -1.4277914534
N       -2.6357811617   -2.4908878692   -2.3203248253
N       -0.1887226013   -0.7314751339   -0.2752139335
O       -0.8791994397   -3.0829444511   -0.9636469043
O        0.8924251975    0.2202062323   -0.4923152027
O        0.1003603102    1.1498143523    2.8617772383
H       -2.3183691821   -5.8240317560   -3.0904986251
H       -1.3724856191   -4.4160515861   -3.7733183593
H       -3.4790746523   -3.4201963056   -4.7213714431
H       -4.4680634670   -4.8036073173   -4.0501468918
H       -0.9574746078   -1.4499960837    1.5723163168
H       -1.7109672390    0.0777844991    1.0033756243
H       -0.0938356875    1.9420182651    0.2415503623
H        1.6543714665    1.7462252794    0.6156072697
H       -3.6968777957   -4.2376953547   -1.7142202819
H        1.2016063970   -0.2897702492    1.8945299075
H       -1.9576295378   -0.0628354122   -1.2553827293
H       -0.5688737040   -0.4527114902   -2.3078336819
H       -3.1613705140   -1.7107688876   -2.7008666089
H        0.2409839945   -1.6808473771   -0.2896934656
H        0.1746672101    0.6080249540    3.6635693553
