24   
torsion grid (-165,)
C       -1.9554565722   -3.0231394621   -1.7039496190
C       -1.9016014189   -2.4063572233   -0.4488723784
C       -0.8211942142   -3.0078655928   -2.5212012513
C       -0.7293105927   -1.7837982425   -0.0225519928
C        0.3624606027   -2.3916999723   -2.1065161973
C        5.3563281939    1.4075953999    1.4030477144
C        5.6385049935    1.1203265343    0.0652805602
C        4.1374849234    0.9407560582    1.8951182043
C        0.4119820009   -1.7756257091   -0.8444089539
C        3.6563158703    0.0328130406   -0.1456129258
C        2.6849181603   -0.7472911665   -1.0295186719
N        4.7963021106    0.4345959075   -0.7156102794
N        3.2839027038    0.2543302988    1.1272572794
N        1.5635223070   -1.1364599357   -0.3450684369
O        2.9291895888   -0.9799818640   -2.2061565619
H       -2.8689516536   -3.5064943241   -2.0391768573
H       -2.7745566681   -2.4047993309    0.1986510559
H       -0.8520408905   -3.4820484113   -3.4988719867
H       -0.6938340656   -1.2995698519    0.9514813742
H        1.2351547823   -2.3745843228   -2.7451484066
H        6.0479674759    1.9646300814    2.0269853658
H        6.5683774692    1.4489465666   -0.3969600940
H        3.8342740493    1.1186407239    2.9254965881
H        1.5319865203   -0.8104990136    0.6168914081
24   
torsion grid (-150,)
C       -1.9638696643   -2.9877942875   -1.7256166476
C       -1.9311212310   -2.3095528781   -0.5022512139
C       -0.7970239446   -3.0757261617   -2.4915304438
C       -0.7458950647   -1.7254126127   -0.0548588966
C        0.3989128743   -2.5031030996   -2.0517081282
C        5.3528710368    1.4055282273    1.3963101032
C        5.5729223737    1.2160508182    0.0296990285
C        4.1838852239    0.8539471932    1.9206117769
C        0.4274732298   -1.8273573588   -0.8210856059
C        3.6296291355    0.0565559838   -0.1475704211
C        2.6435338936   -0.7043968449   -1.0316926271
N        4.7184518718    0.5440697076   -0.7495788525
N        3.3188267963    0.1794505540    1.1547764735
N        1.6014515546   -1.2322572936   -0.3118541424
O        2.8122678100   -0.8171464584   -2.2379275996
H       -2.8875564765   -3.4387232707   -2.0778175043
H       -2.8309309060   -2.2258353394    0.1016306794
H       -0.8127916210   -3.5973324502   -3.4450573261
H       -0.7259773795   -1.1870764344    0.8906446538
H        1.2971922323   -2.5622897291   -2.6520491592
H        6.0539881684    1.9530406983    2.0181128685
H        6.4618104078    1.6141571841   -0.4578270516
H        3.9308672157    0.9527158441    2.9748942171
H        1.5946901145   -0.9572822254    0.6662903654
24   
torsion grid (-135,)
C       -1.9635536873   -2.9476086865   -1.7438715362
C       -1.9437096742   -2.2052907962   -0.5584296932
C       -0.7725046032   -3.1469565629   -2.4502572937
C       -0.7450616582   -1.6653401511   -0.0882291978
C        0.4348866374   -2.6238604713   -1.9820632954
C        5.3518568634    1.3992991342    1.3968253524
C        5.5007034536    1.3123766866    0.0103554424
C        4.2428975953    0.7552475364    1.9453113349
C        0.4503662456   -1.8862288739   -0.7893317347
C        3.6060240747    0.0705421004   -0.1392882739
C        2.6013697731   -0.6735903385   -1.0169133267
N        4.6343144522    0.6512371152   -0.7650259851
N        3.3667880372    0.0903465469    1.1834488505
N        1.6488609590   -1.3334982129   -0.2773944241
O        2.6822042538   -0.6732184434   -2.2362939502
H       -2.8971370183   -3.3617806449   -2.1148585279
H       -2.8632050378   -2.0336694667   -0.0048734840
H       -0.7798844186   -3.7174278899   -3.3753875056
H       -0.7325768702   -1.0709579466    0.8229534691
H        1.3549998154   -2.7695081006   -2.5344412439
H        6.0614545890    1.9394545444    2.0154558644
H        6.3401669130    1.7863024784   -0.4966123121
H        4.0476772165    0.7705316136    3.0162777059
H        1.6726655354   -1.1140072165    0.7143713591
24   
torsion grid (-120,)
C       -1.9619084806   -2.9423026583   -1.7679375103
C       -1.9546034856   -2.1114784084   -0.6427772968
C       -0.7552543257   -3.2581579890   -2.4020920285
C       -0.7497963919   -1.5963665426   -0.1576842888
C        0.4549694682   -2.7622770580   -1.9125057716
C        5.3647727826    1.3706201688    1.3676655291
C        5.4180286321    1.4010688827   -0.0281543073
C        4.3232297969    0.6354974429    1.9333626722
C        0.4586553621   -1.9390335098   -0.7796077118
C        3.5679681845    0.0908011578   -0.1528171602
C        2.5311188683   -0.6242737371   -1.0176199053
N        4.5255117652    0.7661442053   -0.7958087209
N        3.4224092612   -0.0058664586    1.1799776809
N        1.6772588518   -1.4086120657   -0.2763656348
O        2.5077282355   -0.5068491976   -2.2329042897
H       -2.9000527212   -3.3351589936   -2.1506602714
H       -2.8878005913   -1.8494368917   -0.1510235035
H       -0.7543337955   -3.8961158043   -3.2820028941
H       -0.7427939540   -0.9293710327    0.7014812002
H        1.3925176541   -2.9974737536   -2.4038698205
H        6.0944697382    1.8910618017    1.9798457995
H        6.2003585426    1.9510626392   -0.5494965680
H        4.2032966029    0.5566606855    3.0126000301
H        1.7487020881   -1.2629769621    0.7265720001
24   
torsion grid (-105,)
C       -1.9637282999   -2.9933528919   -1.7739027240
C       -1.9744027515   -2.0421181407   -0.7485036332
C       -0.7457881497   -3.4212147018   -2.3137103536
C       -0.7708883108   -1.5191331763   -0.2670217146
C        0.4596758380   -2.9136941741   -1.8232264639
C        5.4006608879    1.3006401499    1.3317234213
C        5.3382251949    1.4764601778   -0.0529287756
C        4.4286807972    0.4765905590    1.8985709534
C        0.4468889904   -1.9712429444   -0.7898349769
C        3.5164060143    0.1250900260   -0.1660029599
C        2.4279705404   -0.5320770861   -1.0138352881
N        4.4003516338    0.8948030236   -0.8086610118
N        3.4851595552   -0.1144279360    1.1562558889
N        1.6752830787   -1.4343319091   -0.2999158940
O        2.2838455551   -0.2763247664   -2.1989020874
H       -2.8994933809   -3.3937050276   -2.1549265033
H       -2.9175365669   -1.6950632836   -0.3344653925
H       -0.7335275689   -4.1525787455   -3.1175225993
H       -0.7710025707   -0.7603666379    0.5117447959
H        1.4105798852   -3.2337808693   -2.2373464413
H        6.1651719200    1.7796882449    1.9351709660
H        6.0613419060    2.1023165464   -0.5743050995
H        4.4010058345    0.2830446079    2.9696513992
H        1.8192692556   -1.4056540021    0.7051968815
24   
torsion grid (-90,)
C       -1.9102348499   -3.0793523644   -1.8122424966
C       -2.0234539282   -1.9294690762   -1.0236500172
C       -0.6470224516   -3.6115092240   -2.0915097370
C       -0.8771943396   -1.3146837564   -0.5119827352
C        0.5004427084   -2.9989378493   -1.5799303037
C        5.5418616664    1.1642241653    1.2928746013
C        5.2265822763    1.6643742175    0.0270908304
C        4.7049846928    0.1665779374    1.7926152821
C        0.3840363323   -1.8543931019   -0.7847016987
C        3.4448475127    0.2631647695   -0.1109255449
C        2.2473000953   -0.2531845984   -0.9089258002
N        4.1821332399    1.2210552471   -0.6812498029
N        3.6560262675   -0.2877692026    1.0971077517
N        1.5574938991   -1.2345982783   -0.2497977743
O        1.9639568515    0.1831043851   -2.0146075298
H       -2.8019700956   -3.5555095484   -2.2115626310
H       -3.0025516746   -1.5083553499   -0.8109722303
H       -0.5543819162   -4.5002128876   -2.7102320877
H       -0.9500906595   -0.4141655290    0.0914497174
H        1.4883124562   -3.3949440590   -1.7977521376
H        6.3924896273    1.5319384234    1.8580056519
H        5.8288693512    2.4451840506   -0.4356080806
H        4.8746339430   -0.2808936401    2.7706515573
H        1.8979858950   -1.4889359010    0.6716907140
24   
torsion grid (-75,)
C       -1.8336824500   -3.1683224950   -1.8524601022
C       -2.0267877869   -1.8726232198   -1.3602386645
C       -0.5654513139   -3.7539297402   -1.7860241577
C       -0.9619948448   -1.1668999181   -0.7955334958
C        0.5073177258   -3.0446459278   -1.2377802421
C        5.6466407703    1.0033184096    1.1746945714
C        5.0870143428    1.8098162879    0.1804401895
C        4.9357012048   -0.1473192524    1.5149127446
C        0.3094229277   -1.7486646329   -0.7467220576
C        3.3333049419    0.3820192940   -0.0246420364
C        2.0239335479    0.0136743043   -0.7208670888
N        3.9335064500    1.5071671884   -0.4252287247
N        3.7792034554   -0.4633986209    0.9205295505
N        1.3902022657   -1.0522528710   -0.1269615882
O        1.6025984827    0.6339091387   -1.6845618466
H       -2.6660770809   -3.7179173312   -2.2839416960
H       -3.0111068614   -1.4141365646   -1.4059555273
H       -0.4076826530   -4.7594315138   -2.1673275384
H       -1.1009884464   -0.1638278351   -0.4047536413
H        1.4993978879   -3.4879405614   -1.1974427302
H        6.5847879742    1.2582395772    1.6574167913
H        5.5770877974    2.7275643030   -0.1419899246
H        5.2965403079   -0.8338479738    2.2790461400
H        1.9543946511   -1.5582022398    0.5493738360
24   
torsion grid (-60,)
C       -1.8375899421   -3.1850442991   -1.8418575711
C       -1.9915079603   -1.8395242912   -1.4886283432
C       -0.6065796282   -3.8153621395   -1.6351857710
C       -0.9310519800   -1.1259280550   -0.9268633201
C        0.4653227251   -3.1033778882   -1.0901973483
C        5.6473615732    0.9979195744    1.1391831133
C        4.9877070371    1.8962214753    0.2964945834
C        5.0031629805   -0.2153878674    1.3804003586
C        0.3073927711   -1.7548987003   -0.7434592197
C        3.2733146033    0.4308056863    0.0361459204
C        1.9298311128    0.0975112941   -0.6096319858
N        3.8026424604    1.6218960515   -0.2596777404
N        3.8171472025   -0.5053045876    0.8329217179
N        1.3834580397   -1.0671882839   -0.1205877280
O        1.4143714876    0.8214911726   -1.4473363967
H       -2.6694343928   -3.7370804361   -2.2710445255
H       -2.9471609073   -1.3444275532   -1.6398273377
H       -0.4757905118   -4.8602467206   -1.9043028104
H       -1.0460919041   -0.0844349443   -0.6477529278
H        1.4277009429   -3.5880702032   -0.9413738196
H        6.6098976075    1.2312928046    1.5831890352
H        5.4209676876    2.8668533707    0.0588373778
H        5.4431259620   -0.9748474533    2.0245843406
H        2.0230110968   -1.6173700994    0.4455321165
24   
torsion grid (-45,)
C       -1.8452887615   -3.2054042282   -1.8218504497
C       -1.9459005896   -1.8296998782   -1.5869560202
C       -0.6501567047   -3.8677530383   -1.5233350338
C       -0.8718600958   -1.1127491453   -1.0556733084
C        0.4350467030   -3.1586655242   -1.0045615739
C        5.6662673868    0.9763014312    1.1134670906
C        4.9462955548    1.9282108674    0.3871456242
C        5.0660705566   -0.2733853034    1.2669456165
C        0.3321372932   -1.7776621153   -0.7781422402
C        3.2604777167    0.4422162974    0.0643907222
C        1.8962288203    0.1323935393   -0.5481241258
N        3.7444744071    1.6709897317   -0.1405182034
N        3.8648722610   -0.5470143988    0.7451384895
N        1.4279975997   -1.1076272602   -0.1843637475
O        1.3081711936    0.9339605285   -1.2591042157
H       -2.6888954403   -3.7552955624   -2.2300767900
H       -2.8731401071   -1.3080827840   -1.8095516781
H       -0.5581881608   -4.9364619076   -1.6986415006
H       -0.9491463957   -0.0476027816   -0.8754116051
H        1.3678248855   -3.6725514452   -0.7816027840
H        6.6412440864    1.1967749403    1.5363441412
H        5.3431746423    2.9290488171    0.2224591567
H        5.5544918987   -1.0754592020    1.8177639634
H        2.1102050705   -1.6783763206    0.3066208550
24   
torsion grid (-30,)
C       -1.8636210423   -3.2099183585   -1.7915526572
C       -1.9149374943   -1.8177097651   -1.6681624120
C       -0.6969447175   -3.8876208696   -1.4213661149
C       -0.8225615340   -1.0964842011   -1.1804718477
C        0.4042887327   -3.1790170870   -0.9404139028
C        5.6706226793    0.9790306521    1.1075125452
C        4.9009531695    1.9685647521    0.4907693596
C        5.1134212752   -0.2984991172    1.1631758229
C        0.3516961063   -1.7797824966   -0.8239574136
C        3.2512904171    0.4635845790    0.0809661347
C        1.8756164154    0.1686691557   -0.5133671210
N        3.6919810173    1.7207200544   -0.0250378239
N        3.9056185464   -0.5627118322    0.6522168604
N        1.4748383026   -1.1223745136   -0.2789920048
O        1.2334904300    1.0220803189   -1.1099156236
H       -2.7210380293   -3.7601690464   -2.1692060117
H       -2.8182374317   -1.2818172371   -1.9482243284
H       -0.6407371757   -4.9694511801   -1.5097459747
H       -0.8629311723   -0.0188099056   -1.0918375595
H        1.3124871576   -3.7083174957   -0.6588840593
H        6.6507858553    1.1922777860    1.5219621735
H        5.2625090115    2.9925564961    0.4069091865
H        5.6422477898   -1.1305167993    1.6250828255
H        2.1852657886   -1.7018163469    0.1591423202
24   
torsion grid (-15,)
C       -1.8784556364   -3.2179400924   -1.7678927896
C       -1.8886476794   -1.8199783848   -1.7491695738
C       -0.7386359334   -3.8987736921   -1.3254518300
C       -0.7845585986   -1.0924527227   -1.2972742177
C        0.3728751488   -3.1880097129   -0.8750625651
C        5.6760473860    0.9738705339    1.0859673491
C        4.8616315932    1.9871760204    0.5742756931
C        5.1526415776   -0.3187833529    1.0574720929
C        0.3601749381   -1.7816733632   -0.8616067317
C        3.2366332826    0.4750353600    0.0988140491
C        1.8473190715    0.1919646690   -0.4695319964
N        3.6422824135    1.7480986514    0.0791242805
N        3.9352805537   -0.5747790888    0.5656354093
N        1.5068934609   -1.1312579173   -0.3661910427
O        1.1529007466    1.0805066847   -0.9456388662
H       -2.7451064852   -3.7700638559   -2.1208256941
H       -2.7695258386   -1.2807793090   -2.0882047184
H       -0.7125177096   -4.9853286766   -1.3319556613
H       -0.7944223771   -0.0109642872   -1.2891183322
H        1.2583593988   -3.7212966781   -0.5343785943
H        6.6640374581    1.1805755029    1.4848384713
H        5.1949936195    3.0239813249    0.5600233368
H        5.7170145976   -1.1697870984    1.4350205750
H        2.2410127292   -1.7174129350    0.0212700610
24   
torsion grid (0,)
C       -1.9817017351   -2.9990445632   -1.8289060065
C       -1.0435556742   -3.6803666517   -1.0479514011
C       -1.7490199436   -1.6593521723   -2.1604343438
C        0.1183129222   -3.0506434001   -0.5935783103
C       -0.5952427367   -1.0162707680   -1.7155101090
C        5.3950363003    1.6161407996    0.8448425246
C        5.5522062024    0.3319531396    1.3721202539
C        4.2364513596    1.8437661228    0.1021476485
C        0.3467132890   -1.7048971372   -0.9294330152
C        3.5773246937   -0.3145965292    0.4593907279
C        2.5417646755   -1.4162836483    0.2418677310
N        4.6510396800   -0.6387283661    1.1857092045
N        3.3250123699    0.8845489662   -0.0943649917
N        1.4863390908   -0.9881207365   -0.5185514278
O        2.6852764979   -2.5369868086    0.7135591621
H       -2.8803554807   -3.5023381821   -2.1747037396
H       -1.2132281922   -4.7211507973   -0.7840382322
H       -2.4664167570   -1.1125248271   -2.7667709050
H        0.8413850130   -3.5817171239    0.0102000812
H       -0.4188628710    0.0255952963   -1.9762696252
H        6.1338984835    2.3951242463    1.0037585898
H        6.4285680669    0.0704678357    1.9636241684
H        4.0302504690    2.8138809221   -0.3468561827
H        1.5546531805   -0.0177689717   -0.8124418930
24   
torsion grid (15,)
C       -1.9581444855   -3.0039746480   -1.8509822479
C       -1.0749277652   -3.6531361556   -0.9830867213
C       -1.6921329596   -1.6848984509   -2.2354497167
C        0.0649397912   -3.0097508501   -0.4938917803
C       -0.5571085970   -1.0302555405   -1.7593680834
C        5.3989978903    1.6216679814    0.8404466866
C        5.6071320558    0.3108084565    1.2765308785
C        4.1952167918    1.8739254085    0.1824461151
C        0.3314802033   -1.6878657804   -0.8898403838
C        3.5903332719   -0.3141726107    0.4425551402
C        2.5611491723   -1.4191573398    0.2123189412
N        4.7102783594   -0.6624712246    1.0828568560
N        3.2881978076    0.9117448701   -0.0200202450
N        1.4412180921   -0.9550893997   -0.4261487416
O        2.7567078224   -2.5695834951    0.5820812475
H       -2.8413146487   -3.5164212546   -2.2223233173
H       -1.2728316652   -4.6768154045   -0.6755995238
H       -2.3677498192   -1.1637434607   -2.9086969473
H        0.7483988349   -3.5169411500    0.1735014221
H       -0.3525972580   -0.0053455153   -2.0631312015
H        6.1344384665    2.4028830267    1.0041410844
H        6.5210265389    0.0297237887    1.7981380454
H        3.9485791368    2.8658687359   -0.1923698653
H        1.4886389850    0.0266885235   -0.6839402775
24   
torsion grid (30,)
C       -1.9253473890   -3.0085242226   -1.8664416044
C       -1.1004110876   -3.6187845958   -0.9160815144
C       -1.6224623346   -1.7155277041   -2.3067581504
C        0.0168961098   -2.9581283220   -0.3999132626
C       -0.5052193953   -1.0468686622   -1.8059867647
C        5.3987430438    1.6402039426    0.8621227271
C        5.6491991728    0.3085288510    1.2023409585
C        4.1617927686    1.9108772128    0.2771048848
C        0.3248157455   -1.6659141179   -0.8562239093
C        3.6069155637   -0.3011802994    0.4189888681
C        2.5879835159   -1.4084609803    0.1571677325
N        4.7609456274   -0.6675976924    0.9846847201
N        3.2627193272    0.9459138003    0.0529220392
N        1.4077854486   -0.9204930002   -0.3443188468
O        2.8346644258   -2.5825262965    0.3962633105
H       -2.7934282229   -3.5318135962   -2.2578132113
H       -1.3296540738   -4.6211620807   -0.5636102640
H       -2.2537253174   -1.2262060252   -3.0439113187
H        0.6568107748   -3.4351483135    0.3307468431
H       -0.2685900001   -0.0435268947   -2.1546605706
H        6.1277121108    2.4236386058    1.0431925369
H        6.5902183855    0.0127929279    1.6642381290
H        3.8814141554    2.9199408994   -0.0203132028
H        1.4283025116    0.0734270475   -0.5544310609
24   
torsion grid (45,)
C       -1.8928796366   -3.0272731828   -1.8883200499
C       -1.1439393952   -3.5926738809   -0.8504155703
C       -1.5408570385   -1.7667560587   -2.3816640630
C       -0.0553950960   -2.9126036669   -0.3003938786
C       -0.4457720984   -1.0842401146   -1.8481304537
C        5.3980515627    1.6355996775    0.8756170582
C        5.6895043308    0.2871198016    1.0960653308
C        4.1226001633    1.9260970056    0.3916080221
C        0.3073295556   -1.6576378340   -0.8122917020
C        3.6109821635   -0.3008373449    0.3961524002
C        2.5958458562   -1.4045953514    0.1067834314
N        4.8037319597   -0.6867672638    0.8594738988
N        3.2256109658    0.9633153642    0.1495953865
N        1.3655001941   -0.9055366795   -0.2490294619
O        2.8793825301   -2.5888792012    0.2113343065
H       -2.7419943729   -3.5613269999   -2.3060481163
H       -1.4139680111   -4.5688541623   -0.4559642050
H       -2.1145587860   -1.3144460447   -3.1864141060
H        0.5256032115   -3.3510277111    0.5016425543
H       -0.1664194805   -0.1081534606   -2.2392938029
H        6.1255780979    2.4170673043    1.0705387218
H        6.6622417534   -0.0242978225    1.4743892799
H        3.8090257081    2.9492217827    0.1911227533
H        1.3571881431    0.0985975045   -0.4037331072
24   
torsion grid (60,)
C       -1.8654929696   -3.0413816558   -1.9029514188
C       -1.2061364556   -3.5540180307   -0.7798681729
C       -1.4428362896   -1.8297289459   -2.4585993015
C       -0.1366482617   -2.8628954532   -0.2072735646
C       -0.3615928737   -1.1409220849   -1.9024648033
C        5.3927085662    1.6378474477    0.8874730619
C        5.7300087346    0.2840851979    0.9624001311
C        4.0816247495    1.9330658355    0.5145272944
C        0.2986299510   -1.6612452826   -0.7813155625
C        3.6244059024   -0.2992202958    0.3439763474
C        2.6182053397   -1.4000352990    0.0136425748
N        4.8542279331   -0.6901072928    0.6923402672
N        3.1936152183    0.9700217593    0.2416056613
N        1.3466695342   -0.9115637221   -0.1828563333
O        2.9371824402   -2.5778441418   -0.0372520383
H       -2.7025374701   -3.5799481638   -2.3390586617
H       -1.5334718255   -4.4918057116   -0.3386420506
H       -1.9487125367   -1.4220032337   -3.3299067775
H        0.3757030666   -3.2529039631    0.6652209088
H       -0.0219672414   -0.2051698418   -2.3409379340
H        6.1126888756    2.4195781920    1.1078360418
H        6.7326658473   -0.0314200398    1.2478444518
H        3.7312247675    2.9604388261    0.4302858596
H        1.2998884431    0.1005245139   -0.2578710606
24   
torsion grid (75,)
C       -1.8668628401   -3.0587365569   -1.8887628125
C       -1.3037141244   -3.4930824758   -0.6835309218
C       -1.3502737178   -1.9270509798   -2.5276446824
C       -0.2361594171   -2.7962424031   -0.1130578009
C       -0.2702674178   -1.2367863097   -1.9694105731
C        5.3846939445    1.6247758762    0.9433059144
C        5.7622964556    0.2834991764    0.8406197540
C        4.0463757898    1.9164518460    0.6807859368
C        0.2898691736   -1.6748201598   -0.7635035952
C        3.6407839477   -0.2947746040    0.2736804679
C        2.6470057935   -1.3833532944   -0.1293794994
N        4.8991511359   -0.6816240688    0.5051425905
N        3.1697574119    0.9621162116    0.3467883475
N        1.3486384968   -0.9312098547   -0.1609942288
O        2.9987116949   -2.5277173595   -0.3694574472
H       -2.7028194951   -3.5980593227   -2.3262848265
H       -1.7033884795   -4.3697102095   -0.1805663982
H       -1.7818076948   -1.5845166508   -3.4645304072
H        0.2047820501   -3.1197954895    0.8245474885
H        0.1462546484   -0.3655672486   -2.4692546286
H        6.0949744516    2.3996885638    1.2136974719
H        6.7878474838   -0.0290657727    1.0328467308
H        3.6638858720    2.9342499465    0.7376268084
H        1.2525208331    0.0786236895   -0.1074534174
24   
torsion grid (90,)
C       -1.8813221364   -3.1244028291   -1.7915119529
C       -1.4394732785   -3.2741825915   -0.4727027892
C       -1.2360665652   -2.2230217941   -2.6447767033
C       -0.3577188891   -2.5220212696   -0.0061046095
C       -0.1542179611   -1.4697514014   -2.1801938367
C        5.3736831743    1.5478163644    1.1635137978
C        5.8038308658    0.3367320543    0.6157471153
C        3.9990966688    1.7836535867    1.1465849584
C        0.2803227902   -1.6153484043   -0.8587872649
C        3.6599995417   -0.2350502405    0.1317133138
C        2.6796372787   -1.2500767700   -0.4566334183
N        4.9562258985   -0.5594181592    0.0984360790
N        3.1377414339    0.8977650771    0.6330534274
N        1.3781271614   -0.8338071001   -0.3779765706
O        3.0501210810   -2.3102108359   -0.9382673272
H       -2.7214023731   -3.7110684340   -2.1540905515
H       -1.9333294504   -3.9789377530    0.1910944159
H       -1.5715800249   -2.1092159007   -3.6722384369
H        0.0031179598   -2.6368332718    1.0121792174
H        0.3632150189   -0.7744280036   -2.8352088010
H        6.0713463398    2.2673312943    1.5803116288
H        6.8607657909    0.0745708270    0.5898124577
H        3.5744125627    2.7005623373    1.5521401391
H        1.2154910492    0.0715145588    0.0505872299
24   
torsion grid (105,)
C       -1.8235643489   -3.1783343320   -1.6772589418
C       -1.5056417398   -2.9984809736   -0.3271094800
C       -1.0745931030   -2.5229188547   -2.6607424878
C       -0.4416380972   -2.1686542069    0.0377618053
C       -0.0217697207   -1.6788273489   -2.2998242991
C        5.3611729118    1.4658504975    1.3439949562
C        5.8033954588    0.5132645929    0.4225096799
C        3.9817905155    1.5596603770    1.5272591951
C        0.2860122813   -1.4912538983   -0.9483631552
C        3.6607969641   -0.1065714801   -0.0026632007
C        2.6885369651   -1.0160340935   -0.7531703306
N        4.9625590755   -0.2775128063   -0.2532588208
N        3.1268842839    0.7780717644    0.8571403702
N        1.3755188099   -0.6478937683   -0.5763177192
O        3.0718331902   -1.9473895831   -1.4433107181
H       -2.6450249615   -3.8306942872   -1.9614461861
H       -2.0739736880   -3.5157667418    0.4414988019
H       -1.3110308090   -2.6676621677   -3.7115930232
H       -0.1715349467   -2.0445704960    1.0836615864
H        0.5696183833   -1.1693294341   -3.0540135498
H        6.0537026508    2.1000448574    1.8883518535
H        6.8647042029    0.3783180540    0.2180468242
H        3.5477591026    2.2743151846    2.2246380019
H        1.2255462418    0.0371881296    0.1585143615
24   
torsion grid (120,)
C       -1.8192717745   -3.1829550863   -1.6486519128
C       -1.5847819538   -2.8789484302   -0.3037333836
C       -0.9841861981   -2.6456815222   -2.6345662025
C       -0.5202794559   -2.0472236689    0.0531424309
C        0.0707335567   -1.7988323682   -2.2879506155
C        5.3626530628    1.4283269119    1.3922001637
C        5.7945321850    0.6123724358    0.3434226746
C        3.9918109094    1.4350383025    1.6492644672
C        0.2953174075   -1.4891984999   -0.9407459138
C        3.6595174348   -0.0505875210   -0.0527025576
C        2.6913494785   -0.9094643756   -0.8643623109
N        4.9521398408   -0.1303347013   -0.3830768758
N        3.1350271676    0.6991189532    0.9319232280
N        1.3744720127   -0.6444280069   -0.5644259801
O        3.0792695641   -1.7168838319   -1.6942797839
H       -2.6415366571   -3.8373433512   -1.9253973857
H       -2.2194768625   -3.3016703842    0.4707395788
H       -1.1553896046   -2.8846580142   -3.6808936170
H       -0.3193711100   -1.8292615236    1.0996867816
H        0.7256233229   -1.3853452233   -3.0468191210
H        6.0561663782    2.0253405825    1.9759144573
H        6.8484746659    0.5508742491    0.0755427298
H        3.5660172933    2.0410121497    2.4472552502
H        1.2483899171   -0.0625192447    0.2588672420
24   
torsion grid (135,)
C       -1.8517770509   -3.1562148675   -1.6448114991
C       -1.6737546879   -2.7759312377   -0.3104590725
C       -0.9394789419   -2.7217457667   -2.6123845597
C       -0.5910163253   -1.9723861418    0.0518487778
C        0.1390504722   -1.9058340852   -2.2635427559
C        5.3618201273    1.4228250036    1.4012498242
C        5.7799551044    0.7223109064    0.2670573971
C        4.0061339902    1.3392076540    1.7182724987
C        0.3094695376   -1.5215160189   -0.9255405411
C        3.6614859052   -0.0104371473   -0.0929652280
C        2.6937836513   -0.8404550529   -0.9344620403
N        4.9389938248    0.0041085054   -0.4852535550
N        3.1518719577    0.6248058830    0.9766277906
N        1.3893231753   -0.6987816556   -0.5246074535
O        3.0753221455   -1.5259832112   -1.8714287980
H       -2.6898405826   -3.7879520195   -1.9263753740
H       -2.3693224704   -3.1151894517    0.4527258415
H       -1.0671834366   -3.0176080204   -3.6504352616
H       -0.4404856869   -1.6927611194    1.0924509923
H        0.8514208641   -1.5776841952   -3.0103885986
H        6.0543185655    2.0015933001    2.0041512686
H        6.8216538270    0.7363604767   -0.0506973041
H        3.5915090507    1.8526595915    2.5841566597
H        1.2859409035   -0.1861367769    0.3465171759
24   
torsion grid (150,)
C       -1.8753349514   -3.1344367275   -1.6533084764
C       -1.7416979990   -2.6913754505   -0.3328770036
C       -0.8908207692   -2.8048358759   -2.5903504038
C       -0.6341593654   -1.9306240637    0.0422597640
C        0.2189185695   -2.0363807961   -2.2303924231
C        5.3684521412    1.4114006126    1.4163283373
C        5.7694520322    0.8171560206    0.2171698611
C        4.0350593298    1.2311722951    1.7839809039
C        0.3463180148   -1.5904659627   -0.9049717563
C        3.6772898249   -0.0020463971   -0.1064522935
C        2.7151631780   -0.8161272578   -0.9694291390
N        4.9328644868    0.1097086172   -0.5500487539
N        3.1856964412    0.5261161112    1.0280847868
N        1.4360369445   -0.8046361958   -0.4729037072
O        3.0842410305   -1.3835644467   -1.9881937393
H       -2.7345757688   -3.7313896644   -1.9464720216
H       -2.4943051105   -2.9450640585    0.4091580203
H       -0.9842031952   -3.1475590894   -3.6176691220
H       -0.5249748983   -1.5977731485    1.0725424831
H        0.9851841787   -1.7928289480   -2.9545405322
H        6.0572073862    1.9831694716    2.0300845821
H        6.7934018706    0.9104159368   -0.1422099089
H        3.6351071833    1.6578781968    2.7022896194
H        1.3476294458   -0.3473581232    0.4301522530
24   
torsion grid (165,)
C       -1.9057256145   -3.1032638506   -1.6643032866
C       -1.8063408636   -2.5954433005   -0.3640198709
C       -0.8608439915   -2.8797791114   -2.5659648490
C       -0.6765345376   -1.8767391919    0.0241058582
C        0.2761474815   -2.1579839834   -2.1932721657
C        5.3699183590    1.4017548763    1.4219885596
C        5.7406066195    0.9183726030    0.1647200279
C        4.0670724079    1.1238828274    1.8355301781
C        0.3701394138   -1.6481244872   -0.8871061939
C        3.6781199241    0.0125653605   -0.1224034197
C        2.7153363142   -0.7849020452   -1.0002401593
N        4.9030128384    0.2238011448   -0.6133175781
N        3.2172876751    0.4307534829    1.0695138908
N        1.4758460253   -0.9056357573   -0.4287969190
O        3.0567694148   -1.2366651334   -2.0854218390
H       -2.7841111479   -3.6659343646   -1.9681510096
H       -2.6067997927   -2.7624182002    0.3520331551
H       -0.9261983455   -3.2712776732   -3.5779410370
H       -0.6004688326   -1.4891646537    1.0382385122
H        1.0861360402   -1.9948239117   -2.8911604644
H        6.0585208676    1.9639895441    2.0446154126
H        6.7393841013    1.0924749587   -0.2333537830
H        3.6921400403    1.4615426934    2.8002394162
H        1.4070167816   -0.4958311090    0.4985275526
24   
torsion grid (180,)
C       -1.9345112037   -3.0639013847   -1.6823623850
C       -1.8609667159   -2.5014336884   -0.4028887838
C       -0.8406522666   -2.9431817910   -2.5444226057
C       -0.7089903413   -1.8298431053    0.0027944843
C        0.3217823747   -2.2731894342   -2.1535742545
C        5.3651161181    1.4023752625    1.4150989104
C        5.6969406306    1.0174323173    0.1137714070
C        4.0994849884    1.0316291735    1.8693899894
C        0.3901200658   -1.7103048997   -0.8672893170
C        3.6701047203    0.0241276127   -0.1358092195
C        2.7037344001   -0.7622761263   -1.0196700437
N        4.8574638200    0.3292193201   -0.6678924494
N        3.2483087946    0.3436442940    1.1003280914
N        1.5170432226   -1.0179838681   -0.3856144711
O        3.0032966979   -1.1020346720   -2.1571332094
H       -2.8314300841   -3.5878479752   -2.0008915476
H       -2.7011167298   -2.5848397375    0.2816007743
H       -0.8865426625   -3.3760950737   -3.5404927586
H       -0.6562728873   -1.3938390520    0.9986435576
H        1.1657187310   -2.1819312049   -2.8235530326
H        6.0548685447    1.9604788661    2.0401552319
H        6.6653061446    1.2674079110   -0.3176434840
H        3.7561861836    1.2891651590    2.8699246570
H        1.4662598849   -0.6517488402    0.5609363580
