23
0 1 C11H9NO2
C                     1.835985555399    -1.609570852106    -0.213580197978
C                     1.151469020133    -0.450518013447     0.169795461722
C                     3.562597473414     1.317327503951     6.436544241062
C                     4.853439515093     0.811905555694     6.210195335664
C                     2.571542698455    -2.332611742314     0.724715910708
C                     1.199735130640    -0.039748923925     1.502754675264
C                     2.520982996330     0.928376734790     5.605316917251
C                     5.029889856498    -0.078680507189     5.158871880251
C                     2.631820914682    -1.930404083881     2.067904971708
C                     1.926473302642    -0.770731652793     2.443833187140
C                     2.812613229185     0.031804465838     4.562113908390
N                     4.026913137033    -0.469076655108     4.347850722553
O                     3.342875237262    -2.693461772809     2.942670974956
O                     1.771333329685    -0.346111788999     3.777248572605
H                     1.803659495460    -1.947801440861    -1.245894443794
H                     0.581737075648     0.123260194619    -0.555282051650
H                     3.377484818576     2.013697053100     7.250116027623
H                     5.693073771414     1.096694204563     6.835762519222
H                     3.117419810541    -3.229282136596     0.445887236594
H                     0.660010820191     0.839922874864     1.841894147046
H                     1.507291745416     1.294266601414     5.727790040145
H                     6.004063201090    -0.513465727614     4.946689212827
H                     3.759720276015    -2.064127524858     3.583675580693
