
  -OEChem-12102412493D

 22 22  0     0  0  0  0  0  0999 V2000
    2.8963    2.2374    6.0011 C   0  0  0  0  0  0  0  0  0  0  0  0
    4.0044    1.9216    6.7947 C   0  0  0  0  0  0  0  0  0  0  0  0
    1.6087    2.1209    6.5361 C   0  0  0  0  0  0  0  0  0  0  0  0
    3.8237    1.4952    8.1139 C   0  0  0  0  0  0  0  0  0  0  0  0
    1.4336    1.6941    7.8560 C   0  0  0  0  0  0  0  0  0  0  0  0
    2.5372    1.3760    8.6633 C   0  0  0  0  0  0  0  0  0  0  0  0
    2.3285    2.0912   11.1516 C   0  0  0  0  0  0  0  0  0  0  0  0
    2.4887    4.5293   11.5466 C   0  0  0  0  0  0  0  0  0  0  0  0
    2.3477    0.9656   10.1033 C   0  0  0  0  0  0  0  0  0  0  0  0
    2.4847    3.3609   10.6797 N   0  0  0  0  0  0  0  0  0  0  0  0
    2.1782    1.8228   12.3432 O   0  0  0  0  0  0  0  0  0  0  0  0
    3.0345    2.5670    4.9747 H   0  0  0  0  0  0  0  0  0  0  0  0
    5.0082    2.0046    6.3859 H   0  0  0  0  0  0  0  0  0  0  0  0
    0.7417    2.3596    5.9254 H   0  0  0  0  0  0  0  0  0  0  0  0
    4.6896    1.2525    8.7263 H   0  0  0  0  0  0  0  0  0  0  0  0
    0.4298    1.6070    8.2666 H   0  0  0  0  0  0  0  0  0  0  0  0
    1.6739    5.2136   11.2846 H   0  0  0  0  0  0  0  0  0  0  0  0
    3.4409    5.0666   11.4747 H   0  0  0  0  0  0  0  0  0  0  0  0
    2.3498    4.1858   12.5720 H   0  0  0  0  0  0  0  0  0  0  0  0
    1.4055    0.4252   10.2350 H   0  0  0  0  0  0  0  0  0  0  0  0
    3.1390    0.2806   10.4220 H   0  0  0  0  0  0  0  0  0  0  0  0
    2.6025    3.4881    9.6831 H   0  0  0  0  0  0  0  0  0  0  0  0
  1  2  1  0  0  0  0
  1  3  2  0  0  0  0
  1 12  1  0  0  0  0
  2  4  2  0  0  0  0
  2 13  1  0  0  0  0
  3  5  1  0  0  0  0
  3 14  1  0  0  0  0
  4  6  1  0  0  0  0
  4 15  1  0  0  0  0
  5  6  2  0  0  0  0
  5 16  1  0  0  0  0
  6  9  1  0  0  0  0
  7  9  1  0  0  0  0
  7 10  1  0  0  0  0
  7 11  2  0  0  0  0
  8 10  1  0  0  0  0
  8 17  1  0  0  0  0
  8 18  1  0  0  0  0
  8 19  1  0  0  0  0
  9 20  1  0  0  0  0
  9 21  1  0  0  0  0
 10 22  1  0  0  0  0
M  END
$$$$
