22
0 1 C9H11NO
C                     2.896252169173     2.237406576033     6.001078017193
C                     4.004396218085     1.921580239105     6.794662060826
C                     1.608747574077     2.120947742641     6.536075997260
C                     3.823720491904     1.495233553653     8.113939302334
C                     1.433573041884     1.694148457213     7.855969772553
C                     2.537222455364     1.376012970858     8.663318482742
C                     2.328521287144     2.091226382893    11.151626400304
C                     2.488683897970     4.529280028833    11.546566323050
C                     2.347667389593     0.965590942210    10.103332897181
N                     2.484679582266     3.360917343756    10.679657590652
O                     2.178177728798     1.822848662351    12.343224277724
H                     3.034479776063     2.566959335880     4.974675792093
H                     5.008229876542     2.004595691919     6.385885953223
H                     0.741709553103     2.359634864507     5.925382588065
H                     4.689647727579     1.252534062007     8.726346848808
H                     0.429776293537     1.607049063400     8.266558042222
H                     1.673948498348     5.213555709091    11.284632562739
H                     3.440944575196     5.066569266846    11.474670904889
H                     2.349849827537     4.185825804829    12.571963635336
H                     1.405529459649     0.425157460214    10.235016624599
H                     3.139031132653     0.280577858800    10.421995084197
H                     2.602512868794     3.488085617911     9.683081708767
