16
0 1 C6H7NO2
C                    -0.087653601106    -2.831013477524    -1.334927948561
C                    -0.143888443059    -1.555625807569    -0.682777457864
C                    -0.562232307469    -3.743237548926    -0.433904209162
C                    -0.648255735843    -1.780502383214     0.568491172095
C                    -0.927604427110    -0.846278827633     1.680774016515
C                    -1.770989962468    -0.660598153977     3.999808294003
N                    -1.440471036162    -1.425220773379     2.808086520323
O                    -0.701569043334     0.360152887147     1.561182115364
O                    -0.910034643027    -3.124793371087     0.734126438382
H                     0.258343160643    -3.043932876044    -2.337720673111
H                     0.145705865147    -0.589278554706    -1.071366671988
H                    -0.710190488410    -4.813555259388    -0.463056560531
H                    -1.170302267724    -0.987789746278     4.856040034784
H                    -2.832888579927    -0.764188911052     4.249296361955
H                    -1.554807503806     0.388205989279     3.795354138030
H                    -1.584795912833    -2.426376694607     2.803982068415
