16
0 1 C4H9NO2
C                     3.106752031900    -0.788958960727    -2.653645918551
C                     5.173523701818    -1.151614983083    -3.965631479104
C                     1.340231156187    -3.419994068418    -2.790402402212
C                     2.112939592785    -1.460071098573    -1.696031417898
N                     4.092772273086    -1.609528480887    -3.106824169337
O                     2.999289613264     0.404223622518    -2.935245036450
O                     2.129196578168    -2.882153221372    -1.730031503485
H                     5.274521548769    -1.803054630032    -4.839935637649
H                     6.128187430967    -1.128747642986    -3.427188772358
H                     4.933004568449    -0.140647566025    -4.296533302165
H                     1.445215453821    -4.506074449247    -2.743874257834
H                     1.681517214157    -3.063609637400    -3.772054534237
H                     0.282089712799    -3.153682959511    -2.663557635253
H                     2.383023179567    -1.164194948867    -0.677657678935
H                     1.116537085229    -1.056956631489    -1.912505839503
H                     4.087964348870    -2.558499882531    -2.752105768099
