
  -OEChem-12102412493D

 16 15  0     0  0  0  0  0  0999 V2000
    0.7220    0.2789   -1.2254 C   0  0  0  0  0  0  0  0  0  0  0  0
    2.1338    1.6656   -2.7106 C   0  0  0  0  0  0  0  0  0  0  0  0
   -1.4766    2.1358    0.1137 C   0  0  0  0  0  0  0  0  0  0  0  0
   -0.0202    0.2601    0.1178 C   0  0  0  0  0  0  0  0  0  0  0  0
    1.3179    1.4651   -1.5233 N   0  0  0  0  0  0  0  0  0  0  0  0
    0.7733   -0.7299   -1.9284 O   0  0  0  0  0  0  0  0  0  0  0  0
   -0.2969    1.5464    0.6585 O   0  0  0  0  0  0  0  0  0  0  0  0
    3.1956    1.7595   -2.4542 H   0  0  0  0  0  0  0  0  0  0  0  0
    1.8170    2.5652   -3.2482 H   0  0  0  0  0  0  0  0  0  0  0  0
    2.0050    0.7965   -3.3568 H   0  0  0  0  0  0  0  0  0  0  0  0
   -1.5787    3.1217    0.5724 H   0  0  0  0  0  0  0  0  0  0  0  0
   -2.3621    1.5318    0.3544 H   0  0  0  0  0  0  0  0  0  0  0  0
   -1.4085    2.2480   -0.9771 H   0  0  0  0  0  0  0  0  0  0  0  0
   -0.9332   -0.3328   -0.0143 H   0  0  0  0  0  0  0  0  0  0  0  0
    0.6168   -0.2580    0.8412 H   0  0  0  0  0  0  0  0  0  0  0  0
    1.2425    2.1954   -0.8251 H   0  0  0  0  0  0  0  0  0  0  0  0
  1  4  1  0  0  0  0
  1  5  1  0  0  0  0
  1  6  2  0  0  0  0
  2  5  1  0  0  0  0
  2  8  1  0  0  0  0
  2  9  1  0  0  0  0
  2 10  1  0  0  0  0
  3  7  1  0  0  0  0
  3 11  1  0  0  0  0
  3 12  1  0  0  0  0
  3 13  1  0  0  0  0
  4  7  1  0  0  0  0
  4 14  1  0  0  0  0
  4 15  1  0  0  0  0
  5 16  1  0  0  0  0
M  END
$$$$
