17
0 1 C6H8N2O
C                     0.129685802984    -0.148547102259     0.262837663780
C                     1.178938614430     0.046027585071    -0.675519062155
C                    -0.837973465396    -0.931915681471    -0.356951306813
C                     0.822334326157    -0.624859133867    -1.843992763319
C                     1.440037587108    -0.824028439371    -3.168005410599
C                     3.391726654807    -0.337204111969    -4.614353240149
N                    -0.404181960396    -1.208330656617    -1.622606222506
N                     2.657803409890    -0.234311503680    -3.363313442291
O                     0.863152457928    -1.494565081126    -4.036390616207
H                     0.081158088431     0.235576941020     1.273502280346
H                     2.086560447506     0.612832803864    -0.506773599147
H                    -1.785303221747    -1.302941593933     0.009741649730
H                     4.365384908885    -0.816398741181    -4.461039484204
H                     3.547216990703     0.650867611677    -5.062482664086
H                     2.800432411188    -0.946864075114    -5.297696430785
H                    -0.867210326366    -1.754290230388    -2.339868121857
H                     3.058849286216     0.298234031063    -2.604194699805
