15
0 1 C5H6N2OS
C                     4.235092473022    15.341862950101    -0.080314098406
C                     4.467822562359    16.196846150171    -1.129663093102
C                     3.637026105217    14.003353128004    -1.733206508539
C                     3.149954318676    12.791452832428    -2.461552834209
C                     2.343078512992    10.480231258486    -2.129537003160
N                     3.764300336524    14.100849779777    -0.432182843322
N                     2.836941082508    11.756483614586    -1.639823050681
O                     3.059380500759    12.783036612857    -3.691147794398
S                     4.085414677817    15.428462684208    -2.629371221079
H                     4.394307480926    15.578481788131     0.966127543777
H                     4.835849029597    17.214068124353    -1.093159512466
H                     1.343538788926    10.270362079742    -1.733033943851
H                     3.017626153958     9.665644086693    -1.843787807694
H                     2.290112896096    10.533298625576    -3.217251779555
H                     2.963339678994    11.913284484304    -0.646136185318
