
  -OEChem-12122420533D

 18 18  0     0  0  0  0  0  0999 V2000
    1.0892   -1.4037   -2.7749 C   0  0  0  0  0  0  0  0  0  0  0  0
   -1.6691   -0.1688   -1.4399 C   0  0  0  0  0  0  0  0  0  0  0  0
   -0.9504    0.7226   -0.4481 C   0  0  0  0  0  0  0  0  0  0  0  0
   -0.2900   -0.5368   -0.9608 C   0  0  0  0  0  0  0  0  0  0  0  0
    2.5814   -2.1198   -4.5781 C   0  0  0  0  0  0  0  0  0  0  0  0
    0.8106   -0.3740   -1.8751 N   0  0  0  0  0  0  0  0  0  0  0  0
    2.2870   -1.2294   -3.4585 N   0  0  0  0  0  0  0  0  0  0  0  0
    0.3537   -2.3715   -2.9425 O   0  0  0  0  0  0  0  0  0  0  0  0
   -2.4985   -0.7764   -1.0922 H   0  0  0  0  0  0  0  0  0  0  0  0
   -1.7495    0.1790   -2.4642 H   0  0  0  0  0  0  0  0  0  0  0  0
   -0.5669    1.6709   -0.8134 H   0  0  0  0  0  0  0  0  0  0  0  0
   -1.2859    0.7326    0.5846 H   0  0  0  0  0  0  0  0  0  0  0  0
   -0.2197   -1.3827   -0.2789 H   0  0  0  0  0  0  0  0  0  0  0  0
    3.6251   -1.9819   -4.8727 H   0  0  0  0  0  0  0  0  0  0  0  0
    1.9321   -1.9398   -5.4447 H   0  0  0  0  0  0  0  0  0  0  0  0
    2.4375   -3.1518   -4.2565 H   0  0  0  0  0  0  0  0  0  0  0  0
    1.6239    0.0922   -1.4877 H   0  0  0  0  0  0  0  0  0  0  0  0
    2.5815   -0.2673   -3.5768 H   0  0  0  0  0  0  0  0  0  0  0  0
  1  6  1  0  0  0  0
  1  7  1  0  0  0  0
  1  8  2  0  0  0  0
  2  3  1  0  0  0  0
  2  4  1  0  0  0  0
  2  9  1  0  0  0  0
  2 10  1  0  0  0  0
  3  4  1  0  0  0  0
  3 11  1  0  0  0  0
  3 12  1  0  0  0  0
  4  6  1  0  0  0  0
  4 13  1  0  0  0  0
  5  7  1  0  0  0  0
  5 14  1  0  0  0  0
  5 15  1  0  0  0  0
  5 16  1  0  0  0  0
  6 17  1  0  0  0  0
  7 18  1  0  0  0  0
M  END
$$$$
