
  -OEChem-12122420533D

 16 16  0     0  0  0  0  0  0999 V2000
    0.6351   -0.5844   -2.1095 C   0  0  0  0  0  0  0  0  0  0  0  0
    0.2933   -0.7961   -0.7348 C   0  0  0  0  0  0  0  0  0  0  0  0
    0.3189   -1.7488   -2.7553 C   0  0  0  0  0  0  0  0  0  0  0  0
   -0.2070   -2.0732   -0.6479 C   0  0  0  0  0  0  0  0  0  0  0  0
   -0.7009   -2.9077    0.4758 C   0  0  0  0  0  0  0  0  0  0  0  0
   -1.5587   -2.8832    2.7775 C   0  0  0  0  0  0  0  0  0  0  0  0
   -0.9969   -2.2017    1.6177 N   0  0  0  0  0  0  0  0  0  0  0  0
   -0.8009   -4.1301    0.3986 O   0  0  0  0  0  0  0  0  0  0  0  0
   -0.1891   -2.6601   -1.8833 O   0  0  0  0  0  0  0  0  0  0  0  0
    1.0637    0.3037   -2.5545 H   0  0  0  0  0  0  0  0  0  0  0  0
    0.4357   -0.1010    0.0826 H   0  0  0  0  0  0  0  0  0  0  0  0
    0.3911   -2.0720   -3.7842 H   0  0  0  0  0  0  0  0  0  0  0  0
   -2.6108   -3.1550    2.6271 H   0  0  0  0  0  0  0  0  0  0  0  0
   -1.4749   -2.2293    3.6489 H   0  0  0  0  0  0  0  0  0  0  0  0
   -0.9947   -3.7989    2.9605 H   0  0  0  0  0  0  0  0  0  0  0  0
   -1.1599   -1.2080    1.5275 H   0  0  0  0  0  0  0  0  0  0  0  0
  1  2  1  0  0  0  0
  1  3  2  0  0  0  0
  1 10  1  0  0  0  0
  2  4  2  0  0  0  0
  2 11  1  0  0  0  0
  3  9  1  0  0  0  0
  3 12  1  0  0  0  0
  4  5  1  0  0  0  0
  4  9  1  0  0  0  0
  5  7  1  0  0  0  0
  5  8  2  0  0  0  0
  6  7  1  0  0  0  0
  6 13  1  0  0  0  0
  6 14  1  0  0  0  0
  6 15  1  0  0  0  0
  7 16  1  0  0  0  0
M  END
$$$$
