
  -OEChem-12122420533D

 15 15  0     0  0  0  0  0  0999 V2000
    0.5297    2.7938   -5.4765 C   0  0  0  0  0  0  0  0  0  0  0  0
    0.1793    1.6197   -6.0762 C   0  0  0  0  0  0  0  0  0  0  0  0
    0.3915    1.3061   -3.9520 C   0  0  0  0  0  0  0  0  0  0  0  0
    0.3847    0.5302   -2.6730 C   0  0  0  0  0  0  0  0  0  0  0  0
    0.7681    0.7822   -0.2451 C   0  0  0  0  0  0  0  0  0  0  0  0
    0.6619    2.5742   -4.1130 N   0  0  0  0  0  0  0  0  0  0  0  0
    0.7032    1.3052   -1.5998 N   0  0  0  0  0  0  0  0  0  0  0  0
    0.1161   -0.6679   -2.6391 O   0  0  0  0  0  0  0  0  0  0  0  0
    0.0883    0.6592   -5.1058 O   0  0  0  0  0  0  0  0  0  0  0  0
    0.6935    3.7652   -5.9227 H   0  0  0  0  0  0  0  0  0  0  0  0
   -0.0280    1.3087   -7.0892 H   0  0  0  0  0  0  0  0  0  0  0  0
    0.0696    1.3135    0.4105 H   0  0  0  0  0  0  0  0  0  0  0  0
    1.7808    0.8757    0.1625 H   0  0  0  0  0  0  0  0  0  0  0  0
    0.4942   -0.2726   -0.2770 H   0  0  0  0  0  0  0  0  0  0  0  0
    0.9052    2.2817   -1.7819 H   0  0  0  0  0  0  0  0  0  0  0  0
  1  2  2  0  0  0  0
  1  6  1  0  0  0  0
  1 10  1  0  0  0  0
  2  9  1  0  0  0  0
  2 11  1  0  0  0  0
  3  4  1  0  0  0  0
  3  6  2  0  0  0  0
  3  9  1  0  0  0  0
  4  7  1  0  0  0  0
  4  8  2  0  0  0  0
  5  7  1  0  0  0  0
  5 12  1  0  0  0  0
  5 13  1  0  0  0  0
  5 14  1  0  0  0  0
  7 15  1  0  0  0  0
M  END
$$$$
