17
0 1 C6H7N3O
C                    -6.571684522270    -5.983356507420    -4.470875650276
C                    -5.805974433116    -5.219357655655    -3.590283522358
C                    -7.663384595739    -6.658620754873    -3.919879807030
C                    -7.173350390505    -5.827522724930    -1.863571891481
C                    -7.514191246395    -5.736593501015    -0.376786752539
C                    -6.781892342677    -4.713474487126     1.748621985739
N                    -6.100218674390    -5.136915968523    -2.287728460627
N                    -7.971789867884    -6.587096729154    -2.620270013360
N                    -6.651644627580    -4.947478141964     0.321389703946
O                    -8.474481150606    -6.327774823509     0.105476522399
H                    -6.331486885223    -6.049084084727    -5.527388503172
H                    -4.936737707291    -4.659455199026    -3.931937093900
H                    -8.312734013874    -7.277172218100    -4.538236109702
H                    -6.948705467475    -3.650755417444     1.958774533587
H                    -5.883064032523    -5.042756789792     2.282048182487
H                    -7.638363149847    -5.284787142148     2.108080147876
H                    -5.902299068495    -4.517370006689    -0.207961812405
