
  -OEChem-12122420533D

 19 19  0     0  0  0  0  0  0999 V2000
    1.5498    0.3264    1.5354 C   0  0  0  0  0  0  0  0  0  0  0  0
    1.4847    0.0805    2.9016 C   0  0  0  0  0  0  0  0  0  0  0  0
    0.2466    0.0947    1.0053 C   0  0  0  0  0  0  0  0  0  0  0  0
   -0.5724   -0.2858    2.0669 C   0  0  0  0  0  0  0  0  0  0  0  0
   -1.9919   -0.6788    2.1804 C   0  0  0  0  0  0  0  0  0  0  0  0
   -4.0776   -1.0843    0.9302 C   0  0  0  0  0  0  0  0  0  0  0  0
    0.2012   -0.2828    3.2029 N   0  0  0  0  0  0  0  0  0  0  0  0
   -0.2180    0.2068   -0.3527 N   0  0  0  0  0  0  0  0  0  0  0  0
   -2.6904   -0.6629    1.0129 N   0  0  0  0  0  0  0  0  0  0  0  0
   -2.4715   -0.9894    3.2823 O   0  0  0  0  0  0  0  0  0  0  0  0
    2.4301    0.6366    0.9858 H   0  0  0  0  0  0  0  0  0  0  0  0
    2.2491    0.1402    3.6643 H   0  0  0  0  0  0  0  0  0  0  0  0
   -4.1692   -2.1137    0.5601 H   0  0  0  0  0  0  0  0  0  0  0  0
   -4.6321   -0.4190    0.2608 H   0  0  0  0  0  0  0  0  0  0  0  0
   -4.5154   -1.0363    1.9280 H   0  0  0  0  0  0  0  0  0  0  0  0
   -0.1856   -0.5343    4.1051 H   0  0  0  0  0  0  0  0  0  0  0  0
    0.3958   -0.3099   -0.9804 H   0  0  0  0  0  0  0  0  0  0  0  0
   -0.1972    1.1797   -0.6558 H   0  0  0  0  0  0  0  0  0  0  0  0
   -2.1568   -0.4439    0.1716 H   0  0  0  0  0  0  0  0  0  0  0  0
  1  2  2  0  0  0  0
  1  3  1  0  0  0  0
  1 11  1  0  0  0  0
  2  7  1  0  0  0  0
  2 12  1  0  0  0  0
  3  4  2  0  0  0  0
  3  8  1  0  0  0  0
  4  5  1  0  0  0  0
  4  7  1  0  0  0  0
  5  9  1  0  0  0  0
  5 10  2  0  0  0  0
  6  9  1  0  0  0  0
  6 13  1  0  0  0  0
  6 14  1  0  0  0  0
  6 15  1  0  0  0  0
  7 16  1  0  0  0  0
  8 17  1  0  0  0  0
  8 18  1  0  0  0  0
  9 19  1  0  0  0  0
M  END
$$$$
