
  -OEChem-12122420533D

 14 13  0     0  0  0  0  0  0999 V2000
    1.2314   -1.4379   -2.6614 C   0  0  0  0  0  0  0  0  0  0  0  0
   -0.2508   -0.6039   -0.9020 C   0  0  0  0  0  0  0  0  0  0  0  0
    2.7853   -2.1352   -4.4186 C   0  0  0  0  0  0  0  0  0  0  0  0
    0.9323   -0.4380   -1.7427 N   0  0  0  0  0  0  0  0  0  0  0  0
    2.2283   -1.0881   -3.5658 N   0  0  0  0  0  0  0  0  0  0  0  0
    0.6666   -2.5296   -2.6732 O   0  0  0  0  0  0  0  0  0  0  0  0
   -1.1878   -0.5280   -1.4688 H   0  0  0  0  0  0  0  0  0  0  0  0
   -0.2370    0.1608   -0.1209 H   0  0  0  0  0  0  0  0  0  0  0  0
   -0.2173   -1.5883   -0.4342 H   0  0  0  0  0  0  0  0  0  0  0  0
    3.3912   -2.8601   -3.8597 H   0  0  0  0  0  0  0  0  0  0  0  0
    3.4010   -1.6685   -5.1921 H   0  0  0  0  0  0  0  0  0  0  0  0
    1.9667   -2.6750   -4.8956 H   0  0  0  0  0  0  0  0  0  0  0  0
    1.1082    0.5072   -2.0622 H   0  0  0  0  0  0  0  0  0  0  0  0
    2.8955   -0.4050   -3.2270 H   0  0  0  0  0  0  0  0  0  0  0  0
  1  4  1  0  0  0  0
  1  5  1  0  0  0  0
  1  6  2  0  0  0  0
  2  4  1  0  0  0  0
  2  7  1  0  0  0  0
  2  8  1  0  0  0  0
  2  9  1  0  0  0  0
  3  5  1  0  0  0  0
  3 10  1  0  0  0  0
  3 11  1  0  0  0  0
  3 12  1  0  0  0  0
  4 13  1  0  0  0  0
  5 14  1  0  0  0  0
M  END
$$$$
