18
0 1 C5H10N2O
C                     1.089222878528    -1.403716794865    -2.774865341257
C                    -1.669142008203    -0.168838624657    -1.439852512671
C                    -0.950351950902     0.722606525678    -0.448062620606
C                    -0.290049014307    -0.536816508135    -0.960818822124
C                     2.581394533464    -2.119781695366    -4.578099261820
N                     0.810567822165    -0.373959861421    -1.875061334161
N                     2.286964027104    -1.229449865089    -3.458493282150
O                     0.353722325683    -2.371527529638    -2.942546628895
H                    -2.498475322108    -0.776359764643    -1.092179560940
H                    -1.749451915525     0.178978437904    -2.464168700039
H                    -0.566909741876     1.670882551425    -0.813443799761
H                    -1.285919973939     0.732624188949     0.584625896376
H                    -0.219718658914    -1.382680942386    -0.278892408217
H                     3.625057836537    -1.981898503463    -4.872666449361
H                     1.932114575129    -1.939830529205    -5.444731128701
H                     2.437535099899    -3.151791717203    -4.256507047047
H                     1.623866547993     0.092205292424    -1.487706531717
H                     2.581468438353    -0.267345555101    -3.576794890510
