15
0 1 C5H6N2O2
C                     0.529725565263     2.793778298811    -5.476509686023
C                     0.179293520598     1.619706802359    -6.076184456210
C                     0.391510796212     1.306122536355    -3.952008510329
C                     0.384731639260     0.530248371180    -2.672963183369
C                     0.768061366378     0.782206172676    -0.245104739655
N                     0.661916260324     2.574197585812    -4.113009946411
N                     0.703207984532     1.305197571634    -1.599848326840
O                     0.116132775561    -0.667886437615    -2.639121734527
O                     0.088286301254     0.659246370793    -5.105804015734
H                     0.693521602069     3.765230254345    -5.922709883311
H                    -0.027971719969     1.308673069967    -7.089213267216
H                     0.069615082433     1.313474607014     0.410481000157
H                     1.780763881425     0.875666752821     0.162512485732
H                     0.494188839017    -0.272637067911    -0.276977686316
H                     0.905195137515     2.281678837961    -1.781875301737
