19
0 1 C6H9N3O
C                     1.549825369161     0.326429746454     1.535350192239
C                     1.484694328031     0.080484525218     2.901649199919
C                     0.246636739431     0.094708702806     1.005255626415
C                    -0.572406252646    -0.285752979083     2.066850575532
C                    -1.991876346149    -0.678845808775     2.180431700917
C                    -4.077605525051    -1.084276532137     0.930177477212
N                     0.201157191446    -0.282819294712     3.202905372615
N                    -0.217976983252     0.206759458281    -0.352684048245
N                    -2.690361127737    -0.662921469478     1.012856172233
O                    -2.471474081393    -0.989361889436     3.282336866935
H                     2.430105753492     0.636615895707     0.985777650478
H                     2.249125798041     0.140151345971     3.664285086984
H                    -4.169244232728    -2.113699570636     0.560068485979
H                    -4.632075649523    -0.419049479886     0.260778651129
H                    -4.515424280295    -1.036344845751     1.928026548883
H                    -0.185557237780    -0.534339397861     4.105102292598
H                     0.395794072974    -0.309919925491    -0.980412248654
H                    -0.197169327862     1.179720563719    -0.655794971189
H                    -2.156800969777    -0.443916580662     0.171601670544
