
  -OEChem-12102412493D

 16 15  0     0  0  0  0  0  0999 V2000
    3.1068   -0.7890   -2.6536 C   0  0  0  0  0  0  0  0  0  0  0  0
    5.1735   -1.1516   -3.9656 C   0  0  0  0  0  0  0  0  0  0  0  0
    1.3402   -3.4200   -2.7904 C   0  0  0  0  0  0  0  0  0  0  0  0
    2.1129   -1.4601   -1.6960 C   0  0  0  0  0  0  0  0  0  0  0  0
    4.0928   -1.6095   -3.1068 N   0  0  0  0  0  0  0  0  0  0  0  0
    2.9993    0.4042   -2.9352 O   0  0  0  0  0  0  0  0  0  0  0  0
    2.1292   -2.8822   -1.7300 O   0  0  0  0  0  0  0  0  0  0  0  0
    5.2745   -1.8031   -4.8399 H   0  0  0  0  0  0  0  0  0  0  0  0
    6.1282   -1.1287   -3.4272 H   0  0  0  0  0  0  0  0  0  0  0  0
    4.9330   -0.1406   -4.2965 H   0  0  0  0  0  0  0  0  0  0  0  0
    1.4452   -4.5061   -2.7439 H   0  0  0  0  0  0  0  0  0  0  0  0
    1.6815   -3.0636   -3.7721 H   0  0  0  0  0  0  0  0  0  0  0  0
    0.2821   -3.1537   -2.6636 H   0  0  0  0  0  0  0  0  0  0  0  0
    2.3830   -1.1642   -0.6777 H   0  0  0  0  0  0  0  0  0  0  0  0
    1.1165   -1.0570   -1.9125 H   0  0  0  0  0  0  0  0  0  0  0  0
    4.0880   -2.5585   -2.7521 H   0  0  0  0  0  0  0  0  0  0  0  0
  1  4  1  0  0  0  0
  1  5  1  0  0  0  0
  1  6  2  0  0  0  0
  2  5  1  0  0  0  0
  2  8  1  0  0  0  0
  2  9  1  0  0  0  0
  2 10  1  0  0  0  0
  3  7  1  0  0  0  0
  3 11  1  0  0  0  0
  3 12  1  0  0  0  0
  3 13  1  0  0  0  0
  4  7  1  0  0  0  0
  4 14  1  0  0  0  0
  4 15  1  0  0  0  0
  5 16  1  0  0  0  0
M  END
$$$$
