16
0 1 C6H7NOS
C                    -2.625547502974    -0.504219012038    -6.393051113199
C                    -3.530072040669    -0.940272786656    -7.404189221658
C                    -1.627998966916     0.296080422693    -6.900120548866
C                    -3.205342948059    -0.461654637806    -8.657153652906
C                    -3.854379484877    -0.670427170865    -9.975411058802
C                    -5.867185064880    -1.409131558339   -11.173676643161
N                    -5.097873046374    -1.248368733553    -9.945867476138
O                    -3.294528628317    -0.356669715743   -11.028742985151
S                    -1.771378833633     0.520603624381    -8.605557975265
H                    -2.704444856400    -0.774912142174    -5.345277087468
H                    -4.366263766397    -1.605070580937    -7.209626996451
H                    -0.813212999121     0.761219200296    -6.359100611518
H                    -6.282813334723    -0.457278358149   -11.526767925020
H                    -6.681771765705    -2.114539258450   -10.992743572811
H                    -5.215528719863    -1.805292668626   -11.953671976952
H                    -5.600059187114    -1.247716041090    -9.069008238349
