
  -OEChem-12102412493D

 21 21  0     0  0  0  0  0  0999 V2000
    1.4318    0.5974    1.6988 C   0  0  0  0  0  0  0  0  0  0  0  0
    1.2873    0.5164    3.0758 C   0  0  0  0  0  0  0  0  0  0  0  0
    0.1954    0.1703    1.1265 C   0  0  0  0  0  0  0  0  0  0  0  0
   -0.6691   -0.1754    2.1679 C   0  0  0  0  0  0  0  0  0  0  0  0
   -2.0391   -0.6980    2.1456 C   0  0  0  0  0  0  0  0  0  0  0  0
   -3.7335   -1.9937    3.3549 C   0  0  0  0  0  0  0  0  0  0  0  0
    0.8880    0.4069   -1.1128 C   0  0  0  0  0  0  0  0  0  0  0  0
    0.0445    0.0190    3.3541 N   0  0  0  0  0  0  0  0  0  0  0  0
   -2.4187   -1.3566    3.3185 N   0  0  0  0  0  0  0  0  0  0  0  0
   -2.8177   -0.5394    1.2072 O   0  0  0  0  0  0  0  0  0  0  0  0
   -0.1299    0.0491   -0.1829 O   0  0  0  0  0  0  0  0  0  0  0  0
    2.3242    0.9152    1.1785 H   0  0  0  0  0  0  0  0  0  0  0  0
    1.9759    0.7869    3.8646 H   0  0  0  0  0  0  0  0  0  0  0  0
   -3.9260   -2.3477    4.3710 H   0  0  0  0  0  0  0  0  0  0  0  0
   -3.8119   -2.8337    2.6534 H   0  0  0  0  0  0  0  0  0  0  0  0
   -4.4928   -1.2589    3.0837 H   0  0  0  0  0  0  0  0  0  0  0  0
    0.4582    0.2526   -2.1032 H   0  0  0  0  0  0  0  0  0  0  0  0
    1.7754   -0.2285   -0.9960 H   0  0  0  0  0  0  0  0  0  0  0  0
    1.1759    1.4598   -1.0007 H   0  0  0  0  0  0  0  0  0  0  0  0
   -0.4075    0.0829    4.2564 H   0  0  0  0  0  0  0  0  0  0  0  0
   -1.6755   -1.8735    3.7751 H   0  0  0  0  0  0  0  0  0  0  0  0
  1  2  2  0  0  0  0
  1  3  1  0  0  0  0
  1 12  1  0  0  0  0
  2  8  1  0  0  0  0
  2 13  1  0  0  0  0
  3  4  2  0  0  0  0
  3 11  1  0  0  0  0
  4  5  1  0  0  0  0
  4  8  1  0  0  0  0
  5  9  1  0  0  0  0
  5 10  2  0  0  0  0
  6  9  1  0  0  0  0
  6 14  1  0  0  0  0
  6 15  1  0  0  0  0
  6 16  1  0  0  0  0
  7 11  1  0  0  0  0
  7 17  1  0  0  0  0
  7 18  1  0  0  0  0
  7 19  1  0  0  0  0
  8 20  1  0  0  0  0
  9 21  1  0  0  0  0
M  END
$$$$
