
  -OEChem-12102412493D

 19 19  0     0  0  0  0  0  0999 V2000
   -2.2262    1.4780   -0.8370 C   0  0  0  0  0  0  0  0  0  0  0  0
   -2.7284    0.3884   -0.0791 C   0  0  0  0  0  0  0  0  0  0  0  0
   -3.1157    2.4222   -1.2732 C   0  0  0  0  0  0  0  0  0  0  0  0
   -4.0646    0.2547    0.2264 C   0  0  0  0  0  0  0  0  0  0  0  0
   -5.0175    1.2545   -0.2337 C   0  0  0  0  0  0  0  0  0  0  0  0
   -4.4725   -0.9483    1.0386 C   0  0  0  0  0  0  0  0  0  0  0  0
   -6.2941   -2.1786    2.1044 C   0  0  0  0  0  0  0  0  0  0  0  0
   -4.4398    2.2966   -0.9750 N   0  0  0  0  0  0  0  0  0  0  0  0
   -5.7915   -1.0564    1.3284 N   0  0  0  0  0  0  0  0  0  0  0  0
   -6.2463    1.2785   -0.0440 O   0  0  0  0  0  0  0  0  0  0  0  0
   -3.6301   -1.7762    1.4083 O   0  0  0  0  0  0  0  0  0  0  0  0
   -1.1722    1.5711   -1.0702 H   0  0  0  0  0  0  0  0  0  0  0  0
   -2.0614   -0.3867    0.2892 H   0  0  0  0  0  0  0  0  0  0  0  0
   -2.8331    3.2914   -1.8582 H   0  0  0  0  0  0  0  0  0  0  0  0
   -6.0925   -3.1274    1.5965 H   0  0  0  0  0  0  0  0  0  0  0  0
   -7.3720   -2.0602    2.2316 H   0  0  0  0  0  0  0  0  0  0  0  0
   -5.8162   -2.2173    3.0885 H   0  0  0  0  0  0  0  0  0  0  0  0
   -5.1072    2.9924   -1.2947 H   0  0  0  0  0  0  0  0  0  0  0  0
   -6.4116   -0.3281    0.9790 H   0  0  0  0  0  0  0  0  0  0  0  0
  1  2  1  0  0  0  0
  1  3  2  0  0  0  0
  1 12  1  0  0  0  0
  2  4  2  0  0  0  0
  2 13  1  0  0  0  0
  3  8  1  0  0  0  0
  3 14  1  0  0  0  0
  4  5  1  0  0  0  0
  4  6  1  0  0  0  0
  5  8  1  0  0  0  0
  5 10  2  0  0  0  0
  6  9  1  0  0  0  0
  6 11  2  0  0  0  0
  7  9  1  0  0  0  0
  7 15  1  0  0  0  0
  7 16  1  0  0  0  0
  7 17  1  0  0  0  0
  8 18  1  0  0  0  0
  9 19  1  0  0  0  0
M  END
$$$$
