32
0 1 C16H11N3OS
C                     7.595238271113    -4.368551171932     4.333778164821
C                     1.349300279892    -1.547162194888    -0.041124763506
C                     0.844989111643    -0.364220661781     0.506926891201
C                     2.397140082351    -2.204186603490     0.599532358016
C                     1.388521651181     0.140272427009     1.690069204725
C                     8.928257413974     0.181077599230     5.211920107002
C                     8.760656418395     1.530294930594     5.110131791008
C                     6.934732934819     0.264500825419     3.988471069147
C                     2.953784066804    -1.691086685498     1.785226231755
C                     7.877262545859    -0.577434563295     4.567203344299
C                     2.444419970582    -0.501852827891     2.353622199578
C                     4.058190293655    -2.450075636690     2.398834407235
C                     5.866746969651    -2.926040237000     3.384747447702
C                     7.932154182590    -2.019882531430     4.585011856097
C                     7.131337551221    -3.024297575722     4.102028397434
C                     2.967500292478     0.093338715925     3.641461980811
N                     7.999408002224    -5.442112193643     4.538338309697
N                     5.133638895768    -1.888261373926     3.063912120386
N                     4.118495079870    -3.766091596091     2.318677119913
O                     5.318527105384    -4.088963943454     2.965462261703
S                     7.316392292905     1.918934723476     4.221593760348
H                     0.932987138320    -1.952265648604    -0.959206138700
H                     0.028189709229     0.161575513979     0.019224849310
H                     2.803796549469    -3.121363000986     0.185056133420
H                     0.979612460801     1.052339877832     2.118493932040
H                     9.766861663898    -0.278715483109     5.725485542186
H                     9.392094045215     2.318634177182     5.498830809402
H                     6.049890661923    -0.038265714288     3.448802285263
H                     8.816823853755    -2.396053967293     5.094257993426
H                     3.204069266139    -0.669396254282     4.386271374637
H                     3.885018437908     0.665169599481     3.469597621407
H                     2.228372706114     0.775547599335     4.069723229411
