25   
torsion grid (-165,)
C       -0.1567909259    2.2102091405    1.3223768093
C        1.3532011885   -0.2720148812    0.0845529668
C       -0.7057830106    0.1357121569   -1.3777018616
C        0.7938685953    2.1067531190   -0.6534965047
C        0.8454198078   -1.6063867994    0.6333063642
C       -1.3906153306   -1.1712639837   -0.9692842147
C        0.2315682684    0.6990662746   -0.3093883475
N        0.5846942438    2.9130111686    0.5523930866
N       -0.5394666895    2.5126409524    2.6090870973
O       -0.8388505724   -3.6089121747    0.0145909975
O        0.6647459188   -2.6373947462   -1.8161735231
O       -0.5656063425    0.9694715136    0.8956994939
S       -0.1649397772   -2.4580783143   -0.6078001656
H        1.9772970982    0.2073644092    0.8464300248
H        1.9841635138   -0.4535631401   -0.7912134844
H       -0.1347027458   -0.0233556339   -2.2977914496
H       -1.4790768750    0.8803871685   -1.5926977037
H        1.8575285502    2.0591673582   -0.9092396426
H        0.2699503465    2.5546995421   -1.5078706555
H        1.6629465496   -2.2962078122    0.8592549792
H        0.2215407117   -1.4832733735    1.5211074796
H       -2.0027373093   -1.0572834645   -0.0718581917
H       -2.0054952958   -1.5816003516   -1.7748438962
H       -1.4002900606    2.0714037694    2.9106112710
H       -0.4892084721    3.5033479301    2.8156195589
25   
torsion grid (-150,)
C       -0.1558138326    2.2015691108    1.2865930074
C        1.2888882447   -0.1974973512    0.1346057314
C       -0.6828392856    0.0997267851   -1.4661356431
C        0.7212626103    2.1370975181   -0.7212815330
C        0.7706891114   -1.5132230381    0.7165092556
C       -1.3690866694   -1.2006014781   -1.0380321088
C        0.1737648166    0.7300114874   -0.3697511744
N        0.6141058048    2.8950245957    0.5345926172
N       -0.3416835326    2.3521666777    2.6435173650
O       -0.8367189581   -3.5771707527    0.0957125588
O        0.7589745362   -2.6642830301   -1.6865322269
O       -0.7052610178    1.0498388842    0.7643833273
S       -0.1461240323   -2.4438454978   -0.5406052573
H        1.8638930478    0.3267838977    0.9050958654
H        1.9696380454   -0.4083221453   -0.6960702478
H       -0.0519023768   -0.0919063406   -2.3395648268
H       -1.4546130664    0.8163879755   -1.7645300353
H        1.7627701990    2.0953050249   -1.0544300558
H        0.1331079315    2.6135820900   -1.5167814385
H        1.5839913617   -2.1746777116    1.0265896780
H        0.0903741857   -1.3597551385    1.5568037987
H       -2.0374606559   -1.0569062019   -0.1861705611
H       -1.9258320646   -1.6602344203   -1.8590741322
H       -1.2205501403    1.9844483832    2.9920924796
H       -0.1456395888    3.2945647475    2.9637846840
25   
torsion grid (-135,)
C       -0.2287167577    2.1584921604    1.2575320569
C        1.2257450806   -0.1566002301    0.1665927668
C       -0.6780179392    0.0456082688   -1.5269304458
C        0.6221941981    2.1501453588   -0.7597417574
C        0.7136229699   -1.4679398485    0.7633599525
C       -1.3510065371   -1.2604655954   -1.0943448658
C        0.1097404216    0.7253264507   -0.4100987913
N        0.5381877142    2.8771800186    0.5223249222
N       -0.2066240772    2.1392667602    2.6393148277
O       -0.8137060899   -3.5894739063    0.1326849793
O        0.8393940453   -2.6875624512   -1.6018876077
O       -0.8331585879    1.0679372000    0.6637853006
S       -0.1224729798   -2.4573570932   -0.5051412687
H        1.7589100364    0.3994439267    0.9440743829
H        1.9427535389   -0.3727869735   -0.6315421243
H       -0.0020500892   -0.1533177115   -2.3642218151
H       -1.4526575487    0.7334145905   -1.8803048801
H        1.6568208536    2.1423889679   -1.1154043554
H       -0.0000366455    2.6210240243   -1.5321909295
H        1.5278677171   -2.0990851158    1.1289972068
H       -0.0073264136   -1.3072044930    1.5675287859
H       -2.0627065275   -1.1112396484   -0.2793603603
H       -1.8560288822   -1.7567507080   -1.9273985360
H       -1.0660976300    1.8155434203    3.0741239458
H        0.1172957180    3.0207540488    3.0262801228
25   
torsion grid (-120,)
C       -0.2786257861    2.1292578186    1.2338090894
C        1.1681020711   -0.1368966497    0.2018911131
C       -0.6689396786    0.0078372349   -1.5662214247
C        0.5622989602    2.1564131390   -0.7878622311
C        0.6412439466   -1.4354665732    0.8131848734
C       -1.3534826974   -1.2899633291   -1.1261322576
C        0.0666752439    0.7200534194   -0.4343597269
N        0.4821855724    2.8702251402    0.5086802905
N       -0.0566561013    1.9423823375    2.5907395080
O       -0.8555328062   -3.5797241986    0.1894425379
O        0.8575813611   -2.7231958385   -1.5092837058
O       -0.9306577148    1.1000872793    0.5733676454
S       -0.1447548146   -2.4640751348   -0.4560982968
H        1.6759135539    0.4361161642    0.9827247278
H        1.9094785834   -0.3677877411   -0.5694571941
H        0.0420508778   -0.2090380145   -2.3693092060
H       -1.4320055821    0.6815296521   -1.9683011783
H        1.5967680576    2.1739457785   -1.1433730651
H       -0.0742832681    2.6156670431   -1.5551149178
H        1.4446537987   -2.0519614734    1.2247514350
H       -0.1083881471   -1.2565618612    1.5865773789
H       -2.0977969640   -1.1217576824   -0.3447783385
H       -1.8223268205   -1.8109625251   -1.9651864043
H       -0.8731822657    1.6556840775    3.1267734529
H        0.4007497749    2.7523812448    3.0016184555
25   
torsion grid (-105,)
C       -0.3358985875    2.1523688811    1.2213562003
C        1.1353162524   -0.0746869089    0.2417793476
C       -0.6285969208    0.0209171800   -1.5920180766
C        0.5246145466    2.2142237259   -0.7969442362
C        0.5949959025   -1.3616289512    0.8649564731
C       -1.3236879526   -1.2720295860   -1.1535525299
C        0.0480554014    0.7621223264   -0.4407998907
N        0.4093810027    2.9247656802    0.5053946920
N        0.0503712082    1.7966575517    2.5116477708
O       -0.8721340261   -3.5257686918    0.2385695954
O        0.9052733251   -2.7070830230   -1.4123327565
O       -1.0114773670    1.1807729322    0.4811367767
S       -0.1393221707   -2.4244107377   -0.4072222470
H        1.6336167595    0.5074995695    1.0192316797
H        1.8876616431   -0.3209100380   -0.5143295664
H        0.1186901395   -0.2069807384   -2.3581878279
H       -1.3789318083    0.6791063080   -2.0407496013
H        1.5663561631    2.2677518334   -1.1270637568
H       -0.1117942267    2.6493746786   -1.5775699323
H        1.3873197865   -1.9633301229    1.3177859103
H       -0.1817882065   -1.1695420272    1.6076271153
H       -2.1004609148   -1.0905582240   -0.4076130500
H       -1.7545888243   -1.8139662829   -1.9996443809
H       -0.7066807397    1.5139719349    3.1336392296
H        0.6141718034    2.5348527304    2.9282377632
25   
torsion grid (-90,)
C       -0.2940098553    2.5536026954    1.0862190930
C        1.1398215553    0.2742104718    0.1040592587
C       -0.4898013594    0.5311003054   -1.8234055974
C        0.7083187896    2.6499122411   -0.8795591773
C        0.4885269624   -0.9939637956    0.6548740147
C       -1.2878381265   -0.7300327667   -1.4755017627
C        0.1435473454    1.1973981821   -0.6015195061
N        0.5217439281    3.3303917088    0.4360601666
N        0.1992675926    2.0359289599    2.2948127357
O       -1.0669286497   -3.0431407013   -0.1237692866
O        0.8586040800   -2.2978793055   -1.6374183465
O       -0.9644704379    1.6857297656    0.2144994079
S       -0.2284244090   -1.9746329559   -0.6912879096
H        1.6476087747    0.7905457253    0.9178022754
H        1.9015282894    0.0028707230   -0.6344426843
H        0.2936151409    0.2823615367   -2.5456246995
H       -1.1700769724    1.2446969604   -2.2979456700
H        1.7753220363    2.6858806197   -1.1208070609
H        0.1489247655    3.1209057497   -1.6970515629
H        1.2146342738   -1.6553745327    1.1346223766
H       -0.3194352032   -0.7754467977    1.3559796173
H       -2.1019660980   -0.5224857532   -0.7777898814
H       -1.6904950751   -1.2194450495   -2.3663470969
H       -0.5038609446    1.7769951341    2.9897613898
H        0.8676123858    2.6950774087    2.6896140738
25   
torsion grid (90,)
C        0.0801706122    2.5550142031    1.2959027431
C        1.9383837260    0.0273379716   -0.3631973025
C       -0.4357229107    0.7591462201   -0.8777674789
C        1.3906665555    2.5771819067   -0.4818187553
C        1.5234363063   -1.3289278881    0.2170787896
C       -1.0839233588   -0.5103426718   -0.3263311724
C        0.8770235428    1.1117135979   -0.1741586341
N        0.5786611713    3.4110258807    0.4531017675
N       -1.3222647666    2.5051866160    1.3477986385
O       -0.5115685112   -3.0852069684    0.1907022651
O        0.2723234974   -2.0559889690   -2.0184708076
O        0.7886436177    1.3468468819    1.2642313432
S        0.0080306653   -1.9372374835   -0.5702553515
H        2.8572901581    0.3457328947    0.1382173621
H        2.1577299078   -0.0811265001   -1.4296558382
H       -0.2016217677    0.6190759032   -1.9383250792
H       -1.1515627689    1.5774258245   -0.8098071343
H        2.4701764486    2.6434839833   -0.2993077991
H        1.1864456623    2.9279909620   -1.4982908928
H        2.2726154743   -2.1024395387    0.0282094059
H        1.3228742284   -1.2738925201    1.2891916049
H       -1.2860506501   -0.4424276569    0.7444774984
H       -2.0073870932   -0.7640858904   -0.8532867252
H       -1.7250750228    2.1711665680    2.2256164217
H       -1.6957059141    3.4217315642    1.1079731319
25   
torsion grid (105,)
C       -0.1534464230    2.2069042558    1.3105147056
C        1.6254136050   -0.4327735253   -0.2424915464
C       -0.6676548581    0.4708687537   -0.8817283624
C        1.2452800739    2.1380872884   -0.3796715069
C        1.0831561278   -1.7639141908    0.2877314980
C       -1.4264168850   -0.7628480515   -0.3931190528
C        0.6318582501    0.7193807987   -0.1085405474
N        0.4263086810    3.0209025611    0.4944797615
N       -1.5273170681    2.2840422267    1.5275669302
O       -1.0555054300   -3.3799417511    0.0984072817
O       -0.0727238371   -2.3632495091   -2.0359239859
O        0.4105620497    0.9301532586    1.3247731363
S       -0.4175214477   -2.2544426021   -0.6039303187
H        2.5309472119   -0.1827599966    0.3188253295
H        1.9033556416   -0.5440105165   -1.2949958810
H       -0.4065822498    0.3467205122   -1.9375587667
H       -1.3269643630    1.3378949134   -0.8092505750
H        2.3116192557    2.1538534094   -0.1219506541
H        1.1319756586    2.4770459825   -1.4137593902
H        1.7880376634   -2.5852354918    0.1334105070
H        0.8181152217   -1.7095375460    1.3458101639
H       -1.6849488023   -0.6994854908    0.6656521409
H       -2.3326757333   -0.9458367122   -0.9762874175
H       -1.8540180918    1.8944131112    2.4115162178
H       -1.8518240237    3.2409588347    1.4036323293
25   
torsion grid (120,)
C       -0.1947136217    2.2080110306    1.2628973558
C        1.6149442578   -0.4532466862   -0.1985279227
C       -0.6680667749    0.4168957297   -0.9419003445
C        1.2027419806    2.1000710982   -0.4195129297
C        1.0654850604   -1.7848749825    0.3224566899
C       -1.4260351141   -0.8253141050   -0.4729201657
C        0.6045369582    0.6886340720   -0.1301385282
N        0.3758687044    2.9967418096    0.4226482538
N       -1.5022030182    2.3971161564    1.6873538739
O       -1.0387828474   -3.4338618182    0.0493358981
O        0.0231381675   -2.4147264302   -2.0453615085
O        0.2722856965    0.9034013162    1.2834034848
S       -0.3873872190   -2.3028392084   -0.6311583610
H        2.4911314808   -0.1836804254    0.3993259544
H        1.9424821387   -0.5745914059   -1.2355846194
H       -0.3844070978    0.2998276950   -1.9925002124
H       -1.3371770465    1.2795087433   -0.8778092569
H        2.2660409153    2.1406398710   -0.1501109079
H        1.1015914258    2.3982766201   -1.4672074370
H        1.7866006202   -2.5986272231    0.2081487293
H        0.7529296390   -1.7240974800    1.3671699576
H       -1.7260271953   -0.7582416121    0.5747425533
H       -2.3066292750   -1.0266480570   -1.0885003124
H       -1.7336085022    1.9654186693    2.5797284117
H       -1.7549038836    3.3819195862    1.6662815415
25   
torsion grid (135,)
C       -0.2246012457    2.2569898116    1.2378071461
C        1.5984370845   -0.4134996795   -0.1639518586
C       -0.6673309573    0.4111375980   -1.0122171167
C        1.1530033750    2.1208709888   -0.4584553707
C        1.0480678317   -1.7503205896    0.3418906254
C       -1.4229955170   -0.8408013463   -0.5654221998
C        0.5688677028    0.7133607081   -0.1541109398
N        0.3443984588    3.0252779075    0.3827307858
N       -1.4164891431    2.5357010532    1.8796129965
O       -1.0095936509   -3.4405051871   -0.0157916330
O        0.1222119184   -2.4077584515   -2.0669775216
O        0.1458030710    0.9265564874    1.2370134806
S       -0.3514891813   -2.2994064914   -0.6723786921
H        2.4425284668   -0.1246990421    0.4701787664
H        1.9751948583   -0.5376486104   -1.1838540058
H       -0.3461361730    0.2935432298   -2.0518611772
H       -1.3495809415    1.2661636007   -0.9749223463
H        2.2190195692    2.1760869202   -0.2012809303
H        1.0432444588    2.3958539918   -1.5117093596
H        1.7870023927   -2.5525879969    0.2666112342
H        0.6873087316   -1.6885959960    1.3709815692
H       -1.7667949378   -0.7740637085    0.4688111466
H       -2.2737951291   -1.0615292273   -1.2153833301
H       -1.5573275357    2.0341983344    2.7520854343
H       -1.5715907944    3.5349109113    1.9756049553
25   
torsion grid (150,)
C       -0.2371985857    2.3303223056    1.2010870193
C        1.5612098739   -0.3693149545   -0.1220104258
C       -0.6727875826    0.4051983383   -1.0955014573
C        1.1045077328    2.1423350971   -0.5221604345
C        1.0031820812   -1.7009606539    0.3882553968
C       -1.4325173567   -0.8475667811   -0.6577094129
C        0.5194935269    0.7457685774   -0.1896971993
N        0.3480574346    3.0685395745    0.3340517111
N       -1.2644150417    2.6981922331    2.0424721259
O       -1.0115516366   -3.4279189770   -0.0304526579
O        0.2054045486   -2.4242536852   -2.0473007139
O        0.0117218509    0.9745554227    1.1708760720
S       -0.3374527995   -2.2923133705   -0.6802496626
H        2.3699102383   -0.0545127260    0.5452012453
H        1.9895997791   -0.5120254702   -1.1189087310
H       -0.3068948456    0.2718891397   -2.1183602308
H       -1.3654612381    1.2533250475   -1.1027357807
H        2.1788568598    2.1946186748   -0.3012408268
H        0.9669284306    2.3988381801   -1.5770424931
H        1.7546457780   -2.4948655922    0.3694029340
H        0.5907691268   -1.6198226181    1.3964098261
H       -1.8270972414   -0.7641850410    0.3570945314
H       -2.2477049708   -1.0949149516   -1.3428517522
H       -1.3493253374    2.1293013888    2.8780917185
H       -1.2782258175    3.6946714435    2.2320329734
25   
torsion grid (165,)
C       -0.2628159204    2.3450669677    1.2234262130
C        1.5071745375   -0.3246550333   -0.0517698339
C       -0.6813432620    0.3483277706   -1.1914898067
C        1.0064968740    2.1557519824   -0.5574664689
C        0.9632846539   -1.6664193096    0.4460194761
C       -1.4229892692   -0.9255428468   -0.7832291003
C        0.4334938629    0.7513352938   -0.2162824361
N        0.3533956217    3.0784444930    0.3755055229
N       -1.0999219308    2.7679302494    2.2304772997
O       -0.9509621949   -3.4766689402   -0.0774394754
O        0.3656820219   -2.4609700231   -2.0246105617
O       -0.1853072925    0.9788847890    1.0971707959
S       -0.2760703743   -2.3271749864   -0.7013562660
H        2.2553611680    0.0334779891    0.6628869081
H        2.0103142500   -0.4688035226   -1.0130557337
H       -0.2454659988    0.2141730755   -2.1865293181
H       -1.4023754016    1.1703424760   -1.2559609755
H        2.0962211378    2.1911031006   -0.4299751386
H        0.7883783199    2.4333190506   -1.5940420764
H        1.7423000323   -2.4318937431    0.4965431226
H        0.4776391059   -1.5825921780    1.4207969879
H       -1.8904791195   -0.8402460747    0.2000318583
H       -2.1785557564   -1.2156476957   -1.5182055860
H       -1.1786303945    2.1292514934    3.0131771655
H       -0.9408996613    3.7318353181    2.4993834541
25   
torsion grid (180,)
C       -0.2422529208    2.2630976608    1.2755532623
C        1.4490041604   -0.3759682961    0.0090283213
C       -0.7278278449    0.1963440148   -1.2048322796
C        0.9078004634    2.0689758789   -0.5865143221
C        0.9332166070   -1.7165438464    0.5380576362
C       -1.4396440013   -1.0887299889   -0.7775959505
C        0.3476125595    0.6633720744   -0.2164103796
N        0.3683309598    2.9882181230    0.4167763981
N       -0.8159923594    2.6792486743    2.4540352401
O       -0.9138404040   -3.5994002459    0.0213524781
O        0.4263328797   -2.6064587954   -1.9212660106
O       -0.3083061588    0.9065739360    1.0752344766
S       -0.2532948513   -2.4510658020   -0.6196089022
H        2.1672508280    0.0287033959    0.7295533958
H        1.9806343242   -0.5347232739   -0.9346313530
H       -0.2639900202    0.0474431920   -2.1850365840
H       -1.4726534954    0.9925848223   -1.3112039471
H        2.0047049966    2.0814069534   -0.5665700203
H        0.5971675100    2.3710710148   -1.5928102483
H        1.7332442132   -2.4553725026    0.6351460606
H        0.4189184615   -1.6149059547    1.4962457852
H       -1.9371298556   -0.9897884280    0.1896228905
H       -2.1645363945   -1.4257302631   -1.5234478706
H       -1.6024775316    2.1228688925    2.7668864214
H       -0.9722110389    3.6793780436    2.4880921905
