15   
torsion grid (-165,)
C       -0.2895432982   -0.8928887075   -2.2069050428
C       -0.9891607797    0.6983960492    1.5654156724
N        0.5799482546   -0.0249877093   -1.8466153430
N       -0.7671014782   -0.6132974179    0.9374155688
N        1.2697363365   -0.1692568739   -0.6664269872
O        1.7237592881   -0.5699106941    1.7356308798
O        0.7528543496   -2.4950511101    0.3566544444
S        0.8303262535   -1.0790709329    0.6961188734
H       -0.7662472804   -0.7074879043   -3.1661159664
H       -0.5623987528   -1.7850563733   -1.6444983869
H       -2.0678202289    0.8415525653    1.6583500073
H       -0.5155753216    0.7904027134    2.5484152092
H       -0.6042159371    1.4780391487    0.9036485703
H       -1.2609597581   -1.3870186837    1.3793951854
H        1.8186446178    0.6479915980   -0.4181743546
15   
torsion grid (-150,)
C       -0.3535839493   -0.8070540235   -2.1254799698
C       -0.9960867137    0.6771769722    1.4621072722
N        0.5344249985    0.0378608880   -1.7568306786
N       -0.7306500316   -0.6592877658    0.9103445456
N        1.3443939877   -0.2487728467   -0.6726792229
O        1.7264500950   -0.5281481232    1.7687025101
O        0.8323564739   -2.5416075297    0.4592160428
S        0.8751972843   -1.1100537189    0.7309715966
H       -0.9337188113   -0.5308667485   -3.0024325198
H       -0.5498477247   -1.7642350070   -1.6423080518
H       -2.0794896492    0.8016259098    1.5204840442
H       -0.5501245970    0.8301282291    2.4503273177
H       -0.6108704234    1.4299522918    0.7697552737
H       -1.2358794658   -1.4240399674    1.3532445338
H        1.8796747917    0.5696771076   -0.3931143635
15   
torsion grid (-135,)
C       -0.4184390997   -0.7001394987   -2.0580285856
C       -1.0162294271    0.6422393291    1.3656373650
N        0.5186116330    0.0867378173   -1.6822186134
N       -0.7011014855   -0.7143718743    0.8940412173
N        1.3946796918   -0.3439958490   -0.6918806718
O        1.7241413312   -0.4381262764    1.7853852612
O        0.9317882812   -2.5748517428    0.6131860591
S        0.9185622810   -1.1265036953    0.7749640005
H       -1.0571254175   -0.3334930331   -2.8578715530
H       -0.6033269377   -1.6932205217   -1.6477912208
H       -2.1038144962    0.7387340968    1.3899979486
H       -0.5998454800    0.8588229453    2.3545858299
H       -0.6318614920    1.3663801503    0.6431004024
H       -1.1939065194   -1.4703115810    1.3648528150
H        1.9901134022    0.4344554012   -0.4156519242
15   
torsion grid (-120,)
C        1.2904127193    1.8739052783   -1.3685139037
C       -2.0542907518   -0.2960255303    0.4870792265
N        0.5914868891    0.9201227556   -0.8788244966
N       -0.7818173234   -0.4468513334    1.2144839387
N        1.2087163743   -0.2842209647   -0.6586721288
O        1.5013833432   -1.4909071312    1.5417741422
O       -0.1410125195   -2.4426902203   -0.1613705079
S        0.4524848952   -1.3171404139    0.5405621232
H        0.7805564958    2.8109949177   -1.5748374038
H        2.3577627937    1.7905372411   -1.6010761884
H       -2.8136442583   -0.0016100061    1.2155896583
H       -1.9895952977    0.4446955073   -0.3145681904
H       -2.3299353999   -1.2658070113    0.0734442806
H       -0.4344485385    0.3978243934    1.6626659655
H        2.2156497397   -0.2518530154   -0.4683589200
15   
torsion grid (-105,)
C        1.3309092571    1.9027322240   -1.3083836788
C       -2.0566457661   -0.3325037150    0.4577970612
N        0.6189703496    1.0050364958   -0.7374288421
N       -0.8040426425   -0.4359415742    1.2286222360
N        1.1046742777   -0.2765590127   -0.6957526910
O        1.5283289221   -1.3764722450    1.5772288613
O       -0.0779636761   -2.4773197569   -0.0512517592
S        0.4583414462   -1.2866787454    0.5878436179
H        0.9128171112    2.9033847256   -1.3749182361
H        2.3193919120    1.7134338683   -1.7406809390
H       -2.8394059233   -0.0133582231    1.1498641771
H       -1.9761647507    0.3756937789   -0.3720013601
H       -2.3109087793   -1.3222436597    0.0792549943
H       -0.4792903716    0.4414280476    1.6293880622
H        2.1246977949   -0.3796577417   -0.7202039079
15   
torsion grid (-90,)
C        1.3770087687    1.9161736022   -1.2627846477
C       -2.0518285157   -0.3635152302    0.4293530938
N        0.6723613653    1.0692184842   -0.6115647254
N       -0.8290837578   -0.4372681022    1.2501872641
N        0.9963033455   -0.2597664307   -0.7124251447
O        1.5481640764   -1.2477542145    1.6181155758
O        0.0070909512   -2.4919346173    0.0384669711
S        0.4705214875   -1.2482275440    0.6336571786
H        1.0754096241    2.9588006450   -1.2137247911
H        2.2476202151    1.6460153734   -1.8700796672
H       -2.8646610201   -0.0396486449    1.0832865482
H       -1.9486562226    0.3309764623   -0.4102669925
H       -2.2806140429   -1.3627005720    0.0591249820
H       -0.5319790415    0.4562120050    1.6375735408
H        1.9660519279   -0.4856067497   -0.9595415903
15   
torsion grid (-75,)
C        1.4431713372    1.9208295004   -1.2300610093
C       -2.0560262336   -0.4008929466    0.4115912044
N        0.7449286932    1.1186244004   -0.5195905006
N       -0.8579388698   -0.4515918559    1.2689390097
N        0.8904287296   -0.2315835998   -0.7277808828
O        1.5591045986   -1.0962737540    1.6418226271
O        0.1051932070   -2.4890737308    0.0993226020
S        0.4837400185   -1.2012286744    0.6618920963
H        1.2744868834    2.9856806775   -1.0948577477
H        2.1844190216    1.5933688004   -1.9671684299
H       -2.8945693429   -0.0901648732    1.0387723931
H       -1.9414516548    0.2931728811   -0.4274176805
H       -2.2561734266   -1.4044407007    0.0358909451
H       -0.5939045402    0.4464991041    1.6701766072
H        1.7683007400   -0.5519507619   -1.1521536385
15   
torsion grid (-60,)
C        1.5464420189    1.9249582479   -1.2189787297
C       -2.0824174268   -0.4604089968    0.4141805783
N        0.8480168933    1.1745770016   -0.4557768469
N       -0.8937744035   -0.4766541115    1.2835347017
N        0.7952260405   -0.1712974113   -0.7371599521
O        1.5494675317   -0.9397146066    1.6523854823
O        0.2029972536   -2.4553180840    0.1145186300
S        0.4914723775   -1.1409687622    0.6705055492
H        1.5355406637    2.9928945879   -1.0184362829
H        2.1420218440    1.5518685009   -2.0596610008
H       -2.9364769735   -0.1711552895    1.0305705274
H       -1.9794504041    0.2325735519   -0.4276786352
H       -2.2517639240   -1.4700250437    0.0388138121
H       -0.6742311859    0.4184407153    1.7171179439
H        1.5606388556   -0.5687958331   -1.2945581818
15   
torsion grid (-45,)
C        1.6754120920    1.9220106316   -1.2375074267
C       -2.1198775384   -0.5316552425    0.4255205578
N        0.9800397647    1.2371987375   -0.4135917701
N       -0.9398714631   -0.5141326607    1.3045463029
N        0.7156867170   -0.0779028879   -0.7248332039
O        1.5158696876   -0.7900397034    1.6751929819
O        0.2909198723   -2.3918301003    0.1032137059
S        0.4910273113   -1.0688993094    0.6791794556
H        1.8339257173    2.9724737846   -1.0086330193
H        2.1110665618    1.5102863757   -2.1551962047
H       -2.9927636818   -0.3008959069    1.0402515022
H       -2.0439995353    0.1860999407   -0.3986573461
H       -2.2378896546   -1.5381164941    0.0222987710
H       -0.7751357504    0.3691861045    1.7841381767
H        1.3492990606   -0.5428088027   -1.3865448876
15   
torsion grid (-30,)
C        1.8141283386    1.9141632943   -1.2759577650
C       -2.1592845760   -0.6142102281    0.4378604291
N        1.1384248213    1.3021899091   -0.3818821416
N       -0.9900875717   -0.5628943207    1.3276444513
N        0.6553483797    0.0488533865   -0.6875534816
O        1.4670249552   -0.6634031743    1.7113865852
O        0.3651753622   -2.3033901426    0.0691166551
S        0.4828812656   -0.9903197717    0.6914071302
H        2.1504244598    2.9218505444   -1.0465476016
H        2.0672313378    1.4823841933   -2.2515624140
H       -3.0464709910   -0.4267489073    1.0467830969
H       -2.1053316741    0.1182044048   -0.3756814253
H       -2.2345108610   -1.6188002268    0.0194896502
H       -0.8881837204    0.2997630725    1.8592460743
H        1.1369396350   -0.4666675666   -1.4343716477
15   
torsion grid (-15,)
C        1.9369571530    1.8940918897   -1.3204170574
C       -2.1863450877   -0.6924801629    0.4440056232
N        1.3112432535    1.3418088545   -0.3539516776
N       -1.0330820906   -0.6089434954    1.3513978937
N        0.6104145465    0.1870966806   -0.6262922241
O        1.4199330448   -0.5676056082    1.7564693318
O        0.4191098120   -2.2089913738    0.0370099420
S        0.4723681925   -0.9167382238    0.7119258209
H        2.4511813802    2.8291857158   -1.1143773348
H        1.9806983402    1.4811145414   -2.3354758448
H       -3.0903581355   -0.5751812446    1.0456747527
H       -2.1638561735    0.0713736925   -0.3423676505
H       -2.2014887301   -1.6843806731   -0.0097535498
H       -0.9894281937    0.2400878199    1.9123043192
H        0.9163618494   -0.3494639460   -1.4467747489
15   
torsion grid (0,)
C        2.0298633690    1.8614277455   -1.3618976787
C       -2.1982600188   -0.7577437020    0.4363434190
N        1.4788753621    1.3404740594   -0.3343820495
N       -1.0641939382   -0.6446151168    1.3645399652
N        0.5784774422    0.3188637335   -0.5487364452
O        1.3802394358   -0.4969330746    1.8075925474
O        0.4693456528   -2.1268726285    0.0216765440
S        0.4662381486   -0.8557913136    0.7388897822
H        2.7053317815    2.6963493608   -1.1948205953
H        1.8583995941    1.5190527249   -2.3898742853
H       -3.1159341562   -0.7012733365    1.0259528336
H       -2.2038828280    0.0305122975   -0.3265864050
H       -2.1590680945   -1.7357608478   -0.0452847164
H       -1.0718203598    0.1949113323    1.9413054884
H        0.7000977704   -0.2016267675   -1.4253408089
15   
torsion grid (15,)
C        1.5367709070   -0.7254547183   -1.8061801425
C        0.0762957938    0.6102206322    1.8728502959
N        0.3873411612   -0.2281713342   -2.0717983752
N       -1.1593349995   -0.0218201360    1.3845421308
N       -0.6283139445   -0.1405067222   -1.1411421953
O        0.2234881711   -2.0092127034    0.4022038846
O       -2.2862050949   -1.7769823815    0.0112633133
S       -0.9638148259   -1.1830035824    0.1858645780
H        2.2542213387   -0.6758775186   -2.6223583263
H        1.8299057091   -1.1867580539   -0.8664128292
H       -0.2065985328    1.3750753175    2.5993939939
H        0.7725247816   -0.0997528969    2.3326578085
H        0.5660236395    1.1071511961    1.0319903663
H       -1.7469605480   -0.4222838388    2.1156665906
H       -1.5030972912    0.1097324082   -1.5962327631
15   
torsion grid (30,)
C        1.4908900039   -0.8911779992   -2.0224535272
C       -0.0459439060    0.6737045824    2.0004308508
N        0.4236288279   -0.1884301466   -2.1033063735
N       -1.1865120852   -0.0225253390    1.3828868724
N       -0.4860137545   -0.0624231673   -1.0715864998
O        0.4265847181   -1.8798221777    0.4734122326
O       -2.0670239608   -1.8840357716   -0.0236310527
S       -0.8189325749   -1.1604468090    0.2075406439
H        2.1307684398   -0.8443600290   -2.9011399107
H        1.7858327929   -1.5068361725   -1.1767223575
H       -0.4466931460    1.4211966546    2.6886556786
H        0.6297739220   -0.0014664703    2.5360646881
H        0.5084628333    1.1930123594    1.2159571105
H       -1.8359822854   -0.4496406377    2.0424873723
H       -1.3565935599    0.3356067911   -1.4162873976
15   
torsion grid (45,)
C        1.4124123038   -1.0106399615   -2.1697640161
C       -0.1380800031    0.7071419683    2.0992235187
N        0.4360903415   -0.1829591853   -2.1451458166
N       -1.1906707584   -0.0181161512    1.3665123837
N       -0.3497946189    0.0196368250   -1.0231901449
O        0.5966138237   -1.7569712105    0.5422061148
O       -1.8563343595   -1.9453941113   -0.0808466333
S       -0.6825816153   -1.1261735973    0.2173230774
H        1.9735178058   -1.0252604086   -3.1016801389
H        1.7077286020   -1.6710634797   -1.3574281661
H       -0.6286818380    1.4346718219    2.7497157967
H        0.5009228807    0.0463529163    2.6940028568
H        0.4765149256    1.2492885118    1.3782853951
H       -1.8895264035   -0.4714844341    1.9537277929
H       -1.2158848213    0.4833261638   -1.2906336899
15   
torsion grid (60,)
C        1.3110111716   -1.1134087889   -2.2902265999
C       -0.2244392360    0.7256271873    2.1878354955
N        0.4305681061   -0.1894634884   -2.1942822227
N       -1.1803718829   -0.0070251545    1.3367780625
N       -0.2058921443    0.0947026738   -0.9935749320
O        0.7623460241   -1.6236568791    0.6300157944
O       -1.6268961715   -1.9834293690   -0.1443906219
S       -0.5351504995   -1.0828129165    0.2251935835
H        1.7764424874   -1.2082372298   -3.2686865511
H        1.6188533746   -1.7834030871   -1.4884325619
H       -0.7975078321    1.4285416812    2.7966651872
H        0.3637782547    0.0657237133    2.8333032147
H        0.4502031862    1.2944534211    1.5460801691
H       -1.9228073171   -0.4881561546    1.8427841574
H       -1.0678912560    0.6029000588   -1.1867538448
15   
torsion grid (75,)
C        1.1864418884   -1.2084746215   -2.3977016618
C       -0.3142427061    0.7307059588    2.2704948377
N        0.4236255380   -0.1935925809   -2.2407655726
N       -1.1547973833    0.0115593524    1.2940257769
N       -0.0454990769    0.1572845947   -0.9812643412
O        0.9261619656   -1.4730254867    0.7468650491
O       -1.3681847489   -2.0092962202   -0.2009697633
S       -0.3718098695   -1.0322671783    0.2385388555
H        1.5423985396   -1.3781127384   -3.4110368753
H        1.5009838515   -1.8931678994   -1.6088097343
H       -0.9638950767    1.4152414721    2.8206297710
H        0.1976585382    0.0599873374    2.9674538285
H        0.4290582385    1.3185526120    1.7301190127
H       -1.9449222691   -0.4893430912    1.6980751876
H       -0.8907311641    0.7163041569   -1.0933460401
15   
torsion grid (90,)
C        1.0464641326   -1.2916081267   -2.5009861134
C       -0.4070264363    0.7256939072    2.3456502831
N        0.3982008780   -0.2098482388   -2.2895523499
N       -1.1126231527    0.0411800930    1.2441575985
N        0.1114804797    0.1914626819   -0.9930793556
O        1.0901578280   -1.2907294856    0.8857876265
O       -1.0814753649   -2.0410241725   -0.2077163074
S       -0.1949346976   -0.9775468121    0.2661908972
H        1.2752293258   -1.5161467800   -3.5397596839
H        1.3836554304   -1.9884245954   -1.7310370713
H       -1.1266507140    1.3902729797    2.8293737233
H        0.0132932763    0.0321238310    3.0802676395
H        0.3984450231    1.3320517982    1.9295437210
H       -1.9430450999   -0.4746535930    1.5317855792
H       -0.6989246433    0.8095521808   -1.0183178567
15   
torsion grid (105,)
C        0.4349952501   -1.6978446446   -2.5960110540
C       -0.7587418302    0.3917849929    2.5817202220
N        0.3224061519   -0.4303036372   -2.4542883506
N       -0.8473603453    0.3229579313    1.1081231085
N        0.1110175296    0.1878405224   -1.2378186462
O        1.6488329018    0.2963781689    0.8961457802
O        0.4076631537   -1.8391991885    0.2963134975
S        0.4787860220   -0.3778656189    0.3397602735
H        0.5468564847   -2.0289124788   -3.6263007486
H        0.4297242620   -2.4322675103   -1.7948189477
H       -1.6325820150    0.9448517237    2.9329999364
H       -0.7343164689   -0.5938413203    3.0609522593
H        0.1387556076    0.9492824747    2.8497377367
H       -1.6922120393   -0.1457335109    0.7813894453
H        0.2984216005    1.1852277633   -1.3055961821
15   
torsion grid (120,)
C        0.0677740948   -1.1130985009   -2.5579809406
C       -0.9495437364    0.7531770723    1.9446665185
N        0.8586947870   -0.2345723151   -2.0692161416
N       -0.9299311304   -0.5255247330    1.2125136563
N        0.6924562741    0.1691433772   -0.7382016911
O        1.6815374537   -0.6675860413    1.4437556174
O        0.3528766344   -2.3329464952    0.0529492388
S        0.5537220620   -0.9800280990    0.5617483144
H        0.2202109149   -1.3492613427   -3.6086120958
H       -0.7180058623   -1.6300830148   -2.0088587331
H       -1.9701966568    0.9123679172    2.2994093304
H       -0.2544283929    0.7780199640    2.7909714814
H       -0.7052590325    1.5565304566    1.2466052555
H       -1.2689504955   -1.3166171148    1.7611197006
H        1.5212893509    0.7128345373   -0.4985611809
15   
torsion grid (135,)
C       -0.0654480952   -1.0319838571   -2.4510296953
C       -0.9966695441    0.7232457050    1.8354610085
N        0.8312771045   -0.2194496131   -2.0368386977
N       -0.8831693127   -0.5642507586    1.1269513856
N        0.8601288973    0.1455207614   -0.6910909735
O        1.7151502988   -0.6168910113    1.5456108164
O        0.5309924344   -2.3564030217    0.1148617012
S        0.6574530685   -0.9860859787    0.6017662231
H       -0.0587374452   -1.2379198761   -3.5187790628
H       -0.8106660715   -1.5220346109   -1.8253678442
H       -2.0477905354    0.8619820267    2.0976908532
H       -0.3789241121    0.7732383112    2.7385535867
H       -0.7066130775    1.5215779102    1.1497403731
H       -1.2499414620   -1.3569255141    1.6548274017
H        1.7552041172    0.5987351948   -0.5100487458
15   
torsion grid (150,)
C       -0.1827578856   -0.9535005539   -2.3342698806
C       -1.0273410381    0.6935013463    1.7272434482
N        0.7800950357   -0.1833601575   -1.9940735265
N       -0.8337384890   -0.5980932840    1.0437539312
N        0.9977854347    0.1119416062   -0.6555453283
O        1.7320069095   -0.5677909302    1.6328390992
O        0.6837993449   -2.3819811584    0.1845323202
S        0.7475394819   -0.9950278073    0.6370349181
H       -0.3140740230   -1.1002464097   -3.4036618270
H       -0.8590256347   -1.4611904175   -1.6474285530
H       -2.1001917620    0.8240286560    1.8851791689
H       -0.4999752572    0.7551719880    2.6850217494
H       -0.6772409567    1.4891057958    1.0671959056
H       -1.2298200527   -1.3942027359    1.5440628170
H        1.9351851574    0.4939997299   -0.5395759119
15   
torsion grid (165,)
C       -0.2669114413   -0.8901496698   -2.2467164949
C       -1.0397456222    0.6737053830    1.6383399170
N        0.7135902450   -0.1261020065   -1.9440890963
N       -0.7939699817   -0.6231027949    0.9825582605
N        1.1003833330    0.0550387742   -0.6325500716
O        1.7277184697   -0.5254228213    1.7021718633
O        0.7866973985   -2.4157792665    0.2687646644
S        0.8099391493   -1.0118275233    0.6715336262
H       -0.5208315368   -0.9296245931   -3.3032175352
H       -0.8467671129   -1.4861027179   -1.5437825643
H       -2.1212891833    0.7969405019    1.7282005486
H       -0.5727002777    0.7496765053    2.6257700556
H       -0.6551686054    1.4658125639    0.9934547199
H       -1.2173054807   -1.4190678926    1.4592831090
H        2.0486069117    0.4183612252   -0.5674126717
15   
torsion grid (180,)
C       -0.3201670145   -0.8466077558   -2.1969656071
C       -1.0365242360    0.6654015918    1.5694656494
N        0.6494660537   -0.0682571224   -1.8919340121
N       -0.7634322477   -0.6427968713    0.9510167846
N        1.1768889989   -0.0406729010   -0.6282269163
O        1.7269809831   -0.4979739994    1.7407216272
O        0.8365723927   -2.4581387058    0.3633928092
S        0.8481255106   -1.0380385402    0.7032678281
H       -0.6822710678   -0.7640800812   -3.2186516262
H       -0.7895318205   -1.5657693957   -1.5280900130
H       -2.1208474100    0.7889012296    1.6138852866
H       -0.6084927128    0.7628318990    2.5725107203
H       -0.6290071545    1.4466440479    0.9249796217
H       -1.2122863015   -1.4324260865    1.4132703669
H        2.0767722915    0.4233383585   -0.5563341891
