22   
torsion grid (-165,)
C       -0.3832832623   -1.1753404046   -0.1669466475
C        0.2735172588   -0.3945437869    0.6888604208
C       -0.9258098052   -0.6070198452   -1.4625145890
C        0.4794611023    1.0815631456    0.5278709612
C       -0.4435351603    1.6057814997   -0.5926552324
C        3.4759883598   -0.9514182339    1.7961794654
N       -0.4685195061    0.7480661754   -1.7801871970
O        1.9112188140   -2.8923060074    0.7919672587
O        1.9417882176   -2.5493137776    3.3248430114
O        0.7834532848   -0.8997473298    1.9232090240
F        3.4765678672   -0.3664231476    0.5886935520
F        3.4778157935   -0.0104958162    2.7425408023
F        4.5623600120   -1.7160182366    1.9182314126
S        1.9458804082   -2.0434334840    1.9689620040
H       -0.5365107974   -2.2294077123    0.0439687475
H       -0.6553805935   -1.2689378542   -2.2923397336
H       -2.0240882035   -0.6111732990   -1.4168263121
H        0.2582549572    1.5845528718    1.4766929661
H        1.5311040815    1.2936858778    0.2971853895
H       -1.4690041499    1.6750717231   -0.2121415320
H       -0.1407748913    2.6142282776   -0.8891354423
H        0.4707417706    0.6956292125   -2.1709354687
22   
torsion grid (-150,)
C       -0.4769459923   -1.1791041790   -0.1102920693
C        0.2924327800   -0.4101161967    0.6578587256
C       -1.0949647873   -0.6279211060   -1.3785628833
C        0.5830555267    1.0388145332    0.4099042063
C       -0.3960294080    1.5799226297   -0.6538823051
C        3.5374933543   -0.8978950050    2.0909872049
N       -0.5785060126    0.6784959661   -1.7944623938
O        2.2063074077   -2.5962646899    0.4787445480
O        1.9214008228   -2.8402437678    3.0076189954
O        0.8623483234   -0.9234807062    1.8593765497
F        3.6417910264   -0.0355662614    1.0695161610
F        3.3843768206   -0.2205690123    3.2293927364
F        4.6423364630   -1.6442109327    2.1543771617
S        2.0601904388   -2.0374085372    1.8107023260
H       -0.6707528261   -2.2138750914    0.1594484069
H       -0.9430850231   -1.3391767092   -2.1975656079
H       -2.1827350792   -0.5532775701   -1.2388387650
H        0.4817796760    1.5978151991    1.3478395820
H        1.6221632300    1.1628258493    0.0801282935
H       -1.3784828577    1.7365479356   -0.1940019514
H       -0.0532245321    2.5515247414   -1.0213495781
H        0.3189637110    0.5447510219   -2.2574640006
22   
torsion grid (-135,)
C       -0.7256521421   -1.1686813356   -0.0418373466
C        0.2650786808   -0.5181345396    0.5648102552
C       -1.4247824844   -0.5607824039   -1.2406605461
C        0.7671276111    0.8406693526    0.1850256571
C       -0.2359396855    1.5040637564   -0.7840337767
C        3.3754186224   -0.7991656938    2.5419538780
N       -0.7428197598    0.5993211639   -1.8193507475
O        2.7227833404   -1.8580378116    0.1411040228
O        2.1691283834   -3.1808504159    2.2562784896
O        0.8672224324   -1.1169628599    1.7141373248
F        3.4037566607    0.4197057197    1.9880116383
F        2.9120589155   -0.7113436287    3.7890304112
F        4.6089300779   -1.3104097378    2.5530122073
S        2.2708892265   -1.9371769602    1.5203592746
H       -1.0469477808   -2.1398380581    0.3275563544
H       -1.5398882437   -1.3216661879   -2.0201230722
H       -2.4434476228   -0.2676303989   -0.9498623995
H        0.8898991112    1.4518369393    1.0867885544
H        1.7578363335    0.7537066018   -0.2781708463
H       -1.0974847928    1.8719812241   -0.2151004637
H        0.2254714581    2.3703927366   -1.2667672900
H        0.0399605484    0.2714972231   -2.3830168984
22   
torsion grid (-120,)
C       -0.7365256587   -1.1259397800    0.0153442582
C        0.2624645871   -0.4329416896    0.5578070900
C       -1.4737906534   -0.5868878985   -1.1940542332
C        0.7369935132    0.9108925931    0.0988173626
C       -0.2984595642    1.5126391395   -0.8759770204
C        3.3514352212   -0.9132992496    2.7053098037
N       -0.8207910274    0.5490453609   -1.8493185593
O        2.8090113904   -1.6278325517    0.1507713612
O        2.0561329842   -3.1824929662    2.0245808413
O        0.9201090863   -0.9571745955    1.7136035737
F        3.4617324610    0.3609158865    2.3132666319
F        2.8159457519   -0.9632336169    3.9252522874
F        4.5599602164   -1.4821086199    2.7191061485
S        2.2695034273   -1.8551855306    1.4819403795
H       -1.0353407317   -2.0805964013    0.4422899102
H       -1.6007482578   -1.3876469597   -1.9305460722
H       -2.4876685073   -0.2895264646   -0.8911407716
H        0.8730763459    1.5655442644    0.9679506974
H        1.7184962387    0.8103146433   -0.3808857380
H       -1.1498791758    1.8997889617   -0.3045137085
H        0.1386648618    2.3578869482   -1.4153637662
H       -0.0486276752    0.2009356515   -2.4154638330
22   
torsion grid (-105,)
C       -0.6649041603   -1.0904649613    0.0780121612
C        0.3273361522   -0.3367512614    0.5476633911
C       -1.4606439573   -0.6388747046   -1.1303216257
C        0.7382670415    0.9969761483    0.0066990213
C       -0.3519940624    1.5143829320   -0.9562285877
C        3.4017111189   -1.0386926720    2.8000298659
N       -0.8730361070    0.4861381260   -1.8619874654
O        2.9759905663   -1.4045444981    0.1459251664
O        2.0198379010   -3.1200737514    1.7633516809
O        1.0609121595   -0.7779488660    1.6935339245
F        3.6269816265    0.2588498859    2.5758640084
F        2.7835350006   -1.1943760569    3.9710004087
F        4.5632783984   -1.6986793475    2.8120251380
S        2.3458544939   -1.7509749920    1.4103418877
H       -0.9145305473   -2.0323134646    0.5612380128
H       -1.5797530051   -1.4794679876   -1.8224646144
H       -2.4751579428   -0.3650403892   -0.8081111363
H        0.8834969234    1.6975110688    0.8378768692
H        1.7056374285    0.9027885967   -0.5023055466
H       -1.1962786773    1.8992144290   -0.3726786735
H        0.0343089672    2.3466986699   -1.5515251567
H       -0.1097129883    0.1381927874   -2.4400373566
22   
torsion grid (-90,)
C       -0.6051711886   -1.0390453766    0.1311416092
C        0.3786166895   -0.2320315408    0.5248423338
C       -1.4578892970   -0.6730269049   -1.0673496523
C        0.7253742049    1.0854943154   -0.0951780890
C       -0.4155499983    1.5199471351   -1.0400072567
C        3.3823679204   -1.1521397211    2.8915461189
N       -0.9351324243    0.4322959212   -1.8744276431
O        3.1589299082   -1.1944353393    0.1830203311
O        1.9632733697   -3.0022095337    1.5080893969
O        1.1804228161   -0.5899256078    1.6555452186
F        3.7241984337    0.1365785387    2.8329391419
F        2.6536185638   -1.3783009488    3.9850074778
F        4.4844291490   -1.9072293977    2.9207943083
S        2.4063830970   -1.6283222646    1.3500481706
H       -0.8044848621   -1.9642758423    0.6664106491
H       -1.5750673878   -1.5502055548   -1.7127894649
H       -2.4682233325   -0.4147776578   -0.7200591442
H        0.8771338745    1.8302575468    0.6953951395
H        1.6776884747    0.9971803230   -0.6330079042
H       -1.2503075931    1.9069336892   -0.4442749557
H       -0.0788410057    2.3333097162   -1.6891933401
H       -0.1829982897    0.0807243947   -2.4647887043
22   
torsion grid (-75,)
C       -0.5321013231   -0.9992978946    0.1962064041
C        0.4563590085   -0.1573553795    0.4935579976
C       -1.4549204082   -0.7108702167   -0.9710507894
C        0.7439645402    1.1313168209   -0.2132960911
C       -0.4550737803    1.4975442764   -1.1137577619
C        3.3518677982   -1.2561295071    2.9656739790
N       -1.0000006513    0.3601879254   -1.8611817360
O        3.4227404268   -0.9703274565    0.2614278726
O        2.0223292083   -2.8569669957    1.2198438270
O        1.3279252064   -0.4372972716    1.5939602943
F        3.7275364342    0.0153089398    3.1123269873
F        2.5075428034   -1.5950161807    3.9404839717
F        4.4265429662   -2.0494332531    3.0057912038
S        2.5331764873   -1.4981419435    1.2842914254
H       -0.6839910390   -1.8995065942    0.7860440971
H       -1.5888768929   -1.6224311529   -1.5633678301
H       -2.4500593542   -0.4530025115   -0.5819884925
H        0.9254276488    1.9189704773    0.5277577188
H        1.6676665354    1.0323315474   -0.7976682228
H       -1.2626157519    1.9016544160   -0.4923884069
H       -0.1702657870    2.2814999247   -1.8213466732
H       -0.2765369077   -0.0085682210   -2.4763227839
22   
torsion grid (-60,)
C       -0.5154558813   -0.9414324944    0.2836928570
C        0.5002701798   -0.1016451257    0.4741669727
C       -1.4985931519   -0.7085468941   -0.8456122378
C        0.7703320939    1.1335088299   -0.3303983938
C       -0.4714242966    1.4658724875   -1.1852374968
C        3.2365345708   -1.4027772641    3.0270429542
N       -1.0774396220    0.2950923845   -1.8263728829
O        3.6923089045   -0.6392468899    0.4597398062
O        2.1939614985   -2.6501075756    0.8461265872
O        1.4152418442   -0.3308811903    1.5491243818
F        3.5358654108   -0.1784926112    3.4624607490
F        2.2778852255   -1.9335775552    3.7874414769
F        4.3258817823   -2.1755940262    3.0736307740
S        2.6709323626   -1.3317904603    1.2295311065
H       -0.6464992900   -1.8005444450    0.9363276743
H       -1.6814651465   -1.6525217014   -1.3701442608
H       -2.4654450797   -0.4064726018   -0.4187269149
H        1.0075328782    1.9628033320    0.3463225996
H        1.6572294549    0.9826313721   -0.9594927821
H       -1.2352412527    1.9255072757   -0.5474266385
H       -0.2136717586    2.1971895756   -1.9566912682
H       -0.3971745291   -0.1263674787   -2.4567362996
22   
torsion grid (-45,)
C       -0.5714586294   -0.8640019759    0.4418872504
C        0.5079346317   -0.0875579864    0.5043971264
C       -1.5890244635   -0.6776168514   -0.6651388559
C        0.8337837103    1.0220027393   -0.4496339121
C       -0.4192877025    1.3584040225   -1.2865375704
C        3.1158188810   -1.5995828155    3.0176754073
N       -1.1423874741    0.1778941070   -1.7675579800
O        3.8656909010   -0.0349284722    0.9360967984
O        2.6108985216   -2.1836586460    0.4120556814
O        1.4183037570   -0.2701016029    1.5868826931
F        3.1539421612   -0.5557402785    3.8465783821
F        2.1364204882   -2.4308461289    3.3800671069
F        4.2858928744   -2.2440953859    3.0520991995
S        2.8388508638   -1.0149062723    1.2462078722
H       -0.7350677430   -1.6314490189    1.1945237300
H       -1.8651546912   -1.6554281962   -1.0741926377
H       -2.5097573229   -0.2567317442   -0.2369662836
H        1.1740245868    1.8989506828    0.1127404865
H        1.6685322520    0.7271498071   -1.1000118926
H       -1.1130892684    1.9451385948   -0.6735230569
H       -0.1441547823    1.9783148461   -2.1446097717
H       -0.5274426084   -0.3624530759   -2.3738491625
22   
torsion grid (-30,)
C       -0.5476646958   -0.7955275115    0.5540618896
C        0.5373852097   -0.0251444762    0.5243518379
C       -1.5926009373   -0.6948566258   -0.5388075163
C        0.8437731446    0.9977853340   -0.5269028105
C       -0.4258583517    1.2682996286   -1.3636540033
C        3.0369611781   -1.7106466524    2.9342311411
N       -1.1660949365    0.0555937549   -1.7224997566
O        3.9555793891    0.2318476217    1.2937832185
O        2.8129816251   -1.7837955247    0.2324054185
O        1.4662503922   -0.1170025024    1.6015249146
F        2.9767165497   -0.8466025902    3.9480960652
F        2.0337614136   -2.5879760534    3.0275761322
F        4.2038524161   -2.3606926871    2.9652214551
S        2.9278504875   -0.7928424402    1.2904314256
H       -0.6974792167   -1.4940977886    1.3738209366
H       -1.8890382931   -1.7011373332   -0.8538220778
H       -2.4977549343   -0.2267173265   -0.1267913753
H        1.1967822499    1.9187010025   -0.0487025343
H        1.6618370142    0.6411071916   -1.1675373044
H       -1.1023886713    1.9125689429   -0.7904850592
H       -0.1657086338    1.8075380350   -2.2789659927
H       -0.5669821844   -0.5411416366   -2.2906263270
22   
torsion grid (-15,)
C       -0.4961388421   -0.7035309354    0.6190581703
C        0.5704253000    0.0861919700    0.5165718585
C       -1.5610706630   -0.6988685354   -0.4591699312
C        0.8315890689    1.0488235853   -0.6009257959
C       -0.4600236680    1.2373235421   -1.4258664368
C        2.8967260619   -1.7677631304    2.8304643755
N       -1.1748436022   -0.0135010905   -1.6949767492
O        4.0289325038    0.3191784347    1.5504262703
O        2.9072711286   -1.4902167923    0.1400518915
O        1.5248257528    0.0892183362    1.5764486943
F        2.8139732760   -1.0366880535    3.9423667137
F        1.8312473532   -2.5719364000    2.7398662493
F        4.0106675892   -2.5044941406    2.8566282591
S        2.9683644388   -0.6417590070    1.3191463657
H       -0.6167157747   -1.3499242353    1.4851381202
H       -1.8347246427   -1.7305744321   -0.7052956590
H       -2.4718463814   -0.2301554509   -0.0604748137
H        1.1690870133    2.0057942811   -0.1859463049
H        1.6460950548    0.6706654626   -1.2329193868
H       -1.1424322341    1.8982614059   -0.8792962589
H       -0.2312860317    1.7257155984   -2.3773983576
H       -0.5699832843   -0.6293998605   -2.2359289929
22   
torsion grid (0,)
C       -0.4436322397   -0.6361325334    0.7067272540
C        0.6195029060    0.1454690581    0.5304307886
C       -1.5266363888   -0.7090335948   -0.3511611013
C        0.8527052593    1.0355964893   -0.6519980317
C       -0.4559699740    1.1650617234   -1.4610071549
C        2.7931309753   -1.8496223019    2.7018371033
N       -1.1670777198   -0.1047755043   -1.6359533126
O        4.0625906651    0.3702640423    1.8624195189
O        3.0837593840   -1.2010855266    0.0991633060
O        1.5890341208    0.2348385694    1.5757621678
F        2.5997723776   -1.2834776121    3.8937884235
F        1.7353354136   -2.6097861311    2.3908741012
F        3.8916386451   -2.6082968647    2.7357042898
S        3.0265347365   -0.5208432926    1.3827001454
H       -0.5524196439   -1.2173890253    1.6189699631
H       -1.7990794551   -1.7559814174   -0.5232787952
H       -2.4326362384   -0.2189963362    0.0326402735
H        1.1896932573    2.0190738934   -0.3033721266
H        1.6581804033    0.6231260851   -1.2724050302
H       -1.1328196765    1.8554003170   -0.9446808969
H       -0.2488827254    1.5928148706   -2.4460907802
H       -0.5668323459   -0.7510349707   -2.1457789088
22   
torsion grid (15,)
C       -0.4180493835   -0.5196501667    0.8148537508
C        0.6487462998    0.2380626390    0.5685150010
C       -1.5077797313   -0.6747463017   -0.2268396286
C        0.8707615668    1.0388166584   -0.6788782847
C       -0.4487094951    1.1165631238   -1.4760663987
C        2.6795850338   -1.8609429875    2.5762663822
N       -1.1634958865   -0.1608987215   -1.5542498287
O        4.0225245547    0.4350492907    2.2018043387
O        3.2627763004   -0.8678354752    0.1365704373
O        1.6221648369    0.4114985937    1.6020454476
F        2.2714015925   -1.4543508091    3.7797492302
F        1.7249752089   -2.6118947011    2.0119135859
F        3.7968961062   -2.5814394094    2.6987742602
S        3.0531315269   -0.3652834767    1.4841389353
H       -0.5283504402   -1.0206003783    1.7733027054
H       -1.7741684889   -1.7331622210   -0.3215797378
H       -2.4140311373   -0.1650469419    0.1298935425
H        1.2150732919    2.0431812847   -0.4046431263
H        1.6674284263    0.5817919696   -1.2775677873
H       -1.1179821792    1.8416324763   -0.9989317278
H       -0.2548473970    1.4756216373   -2.4908501915
H       -0.5720031708   -0.8417796968   -2.0277755387
22   
torsion grid (30,)
C       -0.3629830671   -0.4226603555    0.8999634460
C        0.7068409716    0.3046470013    0.5831657842
C       -1.4692743133   -0.6450413818   -0.1112393059
C        0.9132216734    1.0150307505   -0.7208508429
C       -0.4201359755    1.0486648720   -1.4975828377
C        2.6131564139   -1.9051616417    2.3432554345
N       -1.1446654605   -0.2257533426   -1.4761797351
O        3.9924676456    0.4016798701    2.4548568302
O        3.4701411867   -0.5798948187    0.1536608147
O        1.6941039657    0.5403766703    1.5916266103
F        1.9187858682   -1.6659803085    3.4594584673
F        1.8707338440   -2.6379065776    1.5054490074
F        3.7297880919   -2.5713392147    2.6439948206
S        3.1078849408   -0.2685879193    1.5262379628
H       -0.4646349179   -0.8476392378    1.8956216814
H       -1.7416591222   -1.7060577424   -0.1278148428
H       -2.3673626331   -0.1071187369    0.2241118029
H        1.2693812062    2.0327623275   -0.5215182631
H        1.6974525684    0.5146274684   -1.3002252907
H       -1.0761801426    1.8093617856   -1.0590729368
H       -0.2427756939    1.3364776252   -2.5377477168
H       -0.5668566865   -0.9419072339   -1.9130769554
22   
torsion grid (45,)
C        0.1489487101   -1.0266332570   -0.5016388967
C        0.2579283711   -0.5057898044    0.7196698304
C       -0.2196451592   -0.1520477433   -1.6823711977
C       -0.0192340627    0.9248198125    1.0756317678
C       -0.7588203923    1.6041221625   -0.0963432974
C        3.1160342469   -2.0371315267    1.1263787347
N       -0.1934462102    1.2867104271   -1.4113260738
O        1.9652316812   -2.3750730347    3.5424585258
O        2.4399683645    0.0053766337    2.7586480437
O        0.5400425632   -1.3938491396    1.8056904610
F        2.5476691970   -3.1090005248    0.5651299979
F        3.3264681042   -1.1016787938    0.1943288845
F        4.2824736237   -2.3856993337    1.6733175206
S        2.0086557864   -1.3602252445    2.5117413041
H        0.3013275123   -2.0915193450   -0.6588655185
H        0.4558028714   -0.3620047776   -2.5189851079
H       -1.2249562183   -0.4323761685   -2.0276282788
H       -0.6280231121    0.9554138342    1.9867937590
H        0.9156299508    1.4464608658    1.3095094116
H       -1.8062793297    1.2814590398   -0.1000324947
H       -0.7560122649    2.6898170396    0.0359601000
H        0.7713193555    1.6119587906   -1.4437557022
22   
torsion grid (60,)
C       -0.0106949175   -1.1185865125   -0.5062616072
C        0.1955050326   -0.5902934949    0.6991936791
C       -0.3290567106   -0.2320691217   -1.6925428149
C        0.0911867898    0.8695214509    1.0309649396
C       -0.6142572948    1.6025501754   -0.1295448986
C        3.0696635741   -1.8029755921    1.0801177040
N       -0.1374716884    1.2003283281   -1.4561715861
O        1.8752664456   -2.7505543817    3.3076749030
O        2.1967628625   -0.2341599535    3.1046764814
O        0.4209837063   -1.4893035405    1.7872625578
F        2.6290227853   -2.7907969567    0.2960983123
F        3.2047671923   -0.6821993877    0.3606971877
F        4.2529583918   -2.1378501811    1.5975274877
S        1.8730347175   -1.5290992075    2.5307238210
H        0.0246379402   -2.1964514763   -0.6432045303
H        0.2864828689   -0.5300451429   -2.5484512015
H       -1.3714015421   -0.4082552953   -1.9940009280
H       -0.4706529686    0.9873272839    1.9644206746
H        1.0851578323    1.2936568342    1.2152703732
H       -1.6897543818    1.3957927120   -0.0875258094
H       -0.4889186207    2.6837897326   -0.0226229785
H        0.8546592107    1.4183992529   -1.5315785872
22   
torsion grid (75,)
C       -0.0911323041   -1.1653414479   -0.4619294872
C        0.1533355467   -0.6137912659    0.7255039030
C       -0.3677614710   -0.2964624763   -1.6716373259
C        0.1283359436    0.8577627024    1.0170809437
C       -0.5334684743    1.5990031789   -0.1639659351
C        3.0245145707   -1.6720481000    1.0829186538
N       -0.0890285100    1.1281921826   -1.4790722292
O        1.8244010630   -2.9905855133    3.0997437965
O        2.1187850379   -0.4814410643    3.3522533179
O        0.3441697999   -1.4805499255    1.8426116062
F        2.6515921274   -2.5859784702    0.1840876893
F        3.1036072168   -0.4691545892    0.4998018724
F        4.2203484010   -1.9957243222    1.5780581557
S        1.8096521494   -1.6511332850    2.5481511166
H       -0.1125616004   -2.2470880766   -0.5675766710
H        0.2219778023   -0.6554463258   -2.5223016048
H       -1.4211096822   -0.4189428024   -1.9609748429
H       -0.4282310359    1.0295542363    1.9453365448
H        1.1440881671    1.2320861082    1.1937074774
H       -1.6194260629    1.4604027724   -0.1129236116
H       -0.3416976994    2.6732300758   -0.0903369015
H        0.9137535012    1.2841528423   -1.5661071060
22   
torsion grid (90,)
C       -0.0720462969   -1.1567972958   -0.3978753346
C        0.1863645934   -0.5491002670    0.7589202910
C       -0.3653677120   -0.3441536589   -1.6424426730
C        0.1487123113    0.9327756373    0.9862037727
C       -0.5157847635    1.6207049014   -0.2257137783
C        3.0779351111   -1.5169369373    1.0263374799
N       -0.0799811071    1.0869218427   -1.5195856636
O        1.8925014479   -3.0850253682    2.8601083175
O        2.2759238669   -0.6521856221    3.4721395017
O        0.4090868860   -1.3442321514    1.9191941169
F        2.7274351345   -2.3620842465    0.0543425820
F        3.1039623837   -0.2647848500    0.5515299875
F        4.2926630780   -1.8370641424    1.4754847717
S        1.8983036940   -1.6770080572    2.5149744936
H       -0.0850057233   -2.2423587590   -0.4552397523
H        0.2104441185   -0.7439960021   -2.4843397275
H       -1.4233252126   -0.4758703501   -1.9098132757
H       -0.4132824935    1.1373474994    1.9046850762
H        1.1618534453    1.3202689593    1.1504824390
H       -1.6019373643    1.4886412922   -0.1632770715
H       -0.3202868072    2.6965224426   -0.2035293242
H        0.9230925124    1.2339291097   -1.6187562326
22   
torsion grid (105,)
C       -0.0665943777   -1.1529738183   -0.3109742695
C        0.1896200715   -0.4882854577    0.8148295176
C       -0.3643797755   -0.4042608511   -1.5940272414
C        0.1335798727    1.0011942442    0.9713550516
C       -0.5398011188    1.6226181153   -0.2712313567
C        3.0863455000   -1.4554241048    1.0600632351
N       -0.0961929083    1.0342955589   -1.5383382414
O        1.7990464227   -3.1841049898    2.6701547092
O        2.3532530083   -0.8844458569    3.5994585336
O        0.4330524659   -1.2061304831    2.0190363522
F        2.7654185107   -2.2294926959    0.0211880278
F        3.0976564167   -0.1700423709    0.6819549885
F        4.3006480025   -1.7893673437    1.5005654567
S        1.8958348295   -1.7440823959    2.5231120161
H       -0.0693806515   -2.2401683471   -0.3180412514
H        0.2191576020   -0.8368263317   -2.4141945875
H       -1.4197600946   -0.5609471625   -1.8579676051
H       -0.4312440624    1.2421474130    1.8793385768
H        1.1427040891    1.4065143048    1.1159149174
H       -1.6241273732    1.4792268307   -0.2026052816
H       -0.3587522365    2.7008686574   -0.2994578924
H        0.9050330442    1.1888577346   -1.6443106860
22   
torsion grid (120,)
C       -0.0374851783   -1.1367844514   -0.2759789595
C        0.2247843760   -0.4353916823    0.8258736790
C       -0.3418779757   -0.4292331521   -1.5805049785
C        0.1597088449    1.0569440888    0.9388955653
C       -0.5226066169    1.6359344544   -0.3195254272
C        3.1143191781   -1.4262074118    1.0302733160
N       -0.0796084131    1.0116483385   -1.5694478603
O        1.6890090364   -3.2818417121    2.3704141601
O        2.4324373954   -1.1871499871    3.6176635929
O        0.4974304312   -1.0952566092    2.0570327469
F        2.8145600379   -2.0867914659   -0.0903584125
F        3.1345811973   -0.1083161943    0.7882728494
F        4.3195415798   -1.8101607677    1.4553565922
S        1.8992146654   -1.8475288071    2.4416116701
H       -0.0353322314   -2.2239146437   -0.2507670602
H        0.2404312352   -0.8839828026   -2.3893495629
H       -1.3976442477   -0.5979113599   -1.8355389428
H       -0.4033063732    1.3221313985    1.8413081226
H        1.1676341668    1.4705995299    1.0669714722
H       -1.6058093292    1.4884787147   -0.2426754844
H       -0.3477762589    2.7138571682   -0.3809119830
H        0.9208654745    1.1667776880   -1.6819650231
22   
torsion grid (135,)
C       -0.0170618913   -1.1347666752   -0.2053166858
C        0.2499333195   -0.3813781453    0.8605185779
C       -0.3359301050   -0.4891571924   -1.5386411262
C        0.1680749778    1.1131435067    0.9079303314
C       -0.5365356166    1.6257400092   -0.3664236655
C        3.1359544204   -1.3838269787    1.0619178148
N       -0.0949256511    0.9546181205   -1.5922255726
O        1.5440631109   -3.2885472815    2.1352086728
O        2.4467823880   -1.4360635264    3.6472606088
O        0.5612149413   -0.9619822700    2.1238814921
F        2.8719287416   -1.9505669723   -0.1175017519
F        3.1669771645   -0.0508269306    0.9267371712
F        4.3256147874   -1.8078787751    1.4922445412
S        1.8717339329   -1.8989302283    2.3999289407
H       -0.0028759118   -2.2198163932   -0.1346331988
H        0.2507982206   -0.9702184758   -2.3288801531
H       -1.3898039028   -0.6840242179   -1.7820450879
H       -0.3867297875    1.4128608155    1.8047697076
H        1.1730660006    1.5419221615    1.0043420262
H       -1.6163355424    1.4643111081   -0.2718204262
H       -0.3800070667    2.7027020215   -0.4757022830
H        0.9021505975    1.1192646396   -1.7202988039
22   
torsion grid (150,)
C       -0.0049920010   -1.1279768603   -0.1522399115
C        0.2916151286   -0.3408565113    0.8810333198
C       -0.3600992588   -0.5238207964   -1.4958598094
C        0.2140674246    1.1548292055    0.8805700805
C       -0.5315322325    1.6262918897   -0.3858934813
C        3.2094242815   -1.3023015422    1.1638130132
N       -0.1259246313    0.9181172316   -1.6029293053
O        1.4671479538   -3.2480487608    1.8776793385
O        2.3868022927   -1.6882583593    3.6848809649
O        0.6457302256   -0.8636789497    2.1617323873
F        3.0076347517   -1.7367265953   -0.0823324162
F        3.2494187676    0.0372142577    1.1720891393
F        4.3721642762   -1.7797625893    1.6103794998
S        1.8597990884   -1.9348453346    2.3586813889
H        0.0101113054   -2.2100413057   -0.0507537474
H        0.2062173459   -1.0286109148   -2.2861283536
H       -1.4196167446   -0.7290209865   -1.7041086411
H       -0.3093287029    1.4873136051    1.7848155874
H        1.2227191871    1.5831042222    0.9281145757
H       -1.6074054283    1.4658794642   -0.2526078667
H       -0.3813730325    2.6996904839   -0.5330172080
H        0.8660834123    1.0811139099   -1.7672478071
22   
torsion grid (165,)
C       -0.2500253205   -1.1576963655   -0.1926583485
C        0.2179172589   -0.3871603748    0.7879239182
C       -0.6353789574   -0.5497635001   -1.5258596153
C        0.3316040871    1.1060910381    0.7358431240
C       -0.4558444905    1.6331501673   -0.4825344338
C        3.2497489175   -1.0606537431    1.3993763645
N       -0.2409951953    0.8500382863   -1.7020290661
O        1.5752516400   -3.1763484855    1.3877230427
O        2.1168319180   -2.0418147908    3.6161691562
O        0.5833345319   -0.9315826282    2.0602011574
F        3.1007053252   -0.9827041294    0.0712428285
F        3.3285720706    0.1745749582    1.9080881624
F        4.3687799737   -1.7307124122    1.6786643646
S        1.8070686623   -1.9971287689    2.2027960786
H       -0.3526507750   -2.2302336855   -0.0543991130
H       -0.1970288343   -1.1401042545   -2.3378689515
H       -1.7248836995   -0.6312513508   -1.6468162643
H       -0.0629220062    1.5309195842    1.6663389621
H        1.3852505416    1.4067390611    0.6786620048
H       -1.5280453683    1.6085191259   -0.2570583504
H       -0.1913886136    2.6761705079   -0.6790152456
H        0.7462220225    0.8865203493   -1.9503230233
22   
torsion grid (180,)
C       -0.3161917940   -1.1520869537   -0.1448916029
C        0.2494697429   -0.3742459811    0.7762917651
C       -0.7682107030   -0.5666440211   -1.4673865402
C        0.4260564024    1.1101363649    0.6656162539
C       -0.4162258493    1.6368393111   -0.5157210135
C        3.3662039581   -0.9458168611    1.6549314656
N       -0.3223235656    0.8060331827   -1.7188090163
O        1.7402524175   -3.0252260254    1.1317375934
O        2.0115370223   -2.2712598672    3.5595245968
O        0.6742935376   -0.8934532819    2.0393481853
F        3.2898342858   -0.6071360439    0.3592714590
F        3.4092632897    0.1635409746    2.3978014214
F        4.4691405447   -1.6671256386    1.8590051742
S        1.8702565335   -1.9948006089    2.1459644104
H       -0.4558785563   -2.2141623517    0.0329847487
H       -0.4172996375   -1.2024515718   -2.2874497472
H       -1.8662342704   -0.5978380357   -1.5087227550
H        0.1141212162    1.5830018930    1.6042275281
H        1.4862803479    1.3575407477    0.5275333777
H       -1.4706321845    1.6723337289   -0.2189074613
H       -0.1169077438    2.6588420367   -0.7654519235
H        0.6463676910    0.7859137644   -2.0332083687
