28   
torsion grid (-165,)
C        0.5250518348   -0.6262607491    3.4029571649
C       -0.1334361946   -0.1085795051    4.5229794567
C        1.9178986963   -0.6563583389    3.3732294207
C        0.6107079196    0.4079844656    5.5829495733
C        1.1049446303   -3.6682318010    4.7775830377
C       -0.1145796104   -3.8911591958    5.3214882471
C        2.6957263575   -0.1778218505    4.4423806687
C        2.0083877694    0.3892734857    5.5246088933
C        3.3078480714   -2.6802001193    5.7432667750
C        3.4692676573   -2.2783177725    7.0636187718
C        1.4679147962   -2.9520190188    6.9695700856
C        4.2327943087   -2.6681561099    4.5911097971
C        4.2102786215   -0.2932816475    4.3456962180
N        2.3384045692   -2.4389609528    7.8192744442
N        4.7002712382   -1.6394715397    3.9956193786
N        1.9968231628   -3.1482469357    5.7078567017
S       -0.2073745275   -3.4348940273    7.0209332392
Cl       2.8795817874    1.1115735934    6.8681749116
Cl       4.9385167878   -1.6860605798    7.7531981009
H       -0.0447091370   -1.0122174312    2.5619839561
H       -1.2185954869   -0.0978575864    4.5720998152
H        2.4303214371   -1.0778765822    2.5118563511
H        0.1198191526    0.8257669577    6.4560420769
H        1.4133946616   -3.8407665271    3.7559602618
H       -0.9840610326   -4.2921506828    4.8198934158
H        4.5918192446   -3.6392559510    4.2345197200
H        4.5431160858    0.3671248932    3.5384740849
H        4.6937832121    0.0433052372    5.2661157176
28   
torsion grid (-150,)
C        0.4486185791   -0.6287908227    3.5799311359
C       -0.1365991283   -0.0447274902    4.7074970788
C        1.8368861108   -0.6595755459    3.4620309095
C        0.6738916134    0.5360420655    5.6831214133
C        1.1358774932   -3.6649237315    4.6913918410
C       -0.1160926724   -3.9070449306    5.1467721302
C        2.6805177902   -0.1215819199    4.4492601866
C        2.0642258581    0.5126465497    5.5370527956
C        3.2316173972   -2.5932936146    5.7944321153
C        3.2890823186   -2.1735883687    7.1172623651
C        1.3115975907   -2.8849216115    6.8847833603
C        4.2624421045   -2.5939804683    4.7331915027
C        4.1837509847   -0.2317847324    4.2409729384
N        2.1061022585   -2.3421021245    7.7882995584
N        4.7480979940   -1.5850926308    4.1206731459
N        1.9383737707   -3.0920673662    5.6699537903
S       -0.3520490390   -3.4043082388    6.8184246516
Cl       3.0197157434    1.3209003522    6.7702994327
Cl       4.6981153305   -1.5632223670    7.9091843160
H       -0.1732996004   -1.0652676771    2.8034288475
H       -1.2161962613   -0.0295093675    4.8264150115
H        2.2944050112   -1.1270749790    2.5926723346
H        0.2387050234    1.0075894528    6.5582243726
H        1.5288006433   -3.8638758643    3.7039704990
H       -0.9327748946   -4.3485408126    4.5931147037
H        4.7250616353   -3.5601334606    4.5040035770
H        4.3998725634    0.2473480475    3.2801243352
H        4.7413156238    0.3070637477    5.0112417774
28   
torsion grid (-135,)
C        0.1008920483   -0.4561864957    3.9041922058
C       -0.0929529982    0.1901738916    5.1261163271
C        1.3993458954   -0.6968346608    3.4489558070
C        1.0092856763    0.6321863648    5.8637989317
C        1.5822603374   -3.5573306152    4.4760383054
C        0.2957007507   -3.9617300353    4.5967339776
C        2.5245062113   -0.3065701629    4.1872601215
C        2.2962096757    0.4008266272    5.3793584410
C        3.2505504878   -2.4626120185    6.1415910950
C        2.9612211203   -2.2245679612    7.4795394633
C        1.1397071942   -2.9400640800    6.6799752514
C        4.4953047534   -2.3399684486    5.3533451356
C        3.9177706408   -0.6277423999    3.6905247769
N        1.6586074231   -2.4919120876    7.8088616809
N        4.7479680926   -1.6707977624    4.2953047456
N        2.0474412258   -2.9600113972    5.6404826568
S       -0.3901284156   -3.6132122920    6.1809017747
Cl       3.6536346738    1.0305634938    6.2992769681
Cl       4.0788448151   -1.6380680064    8.6583645592
H       -0.7508515860   -0.7876192191    3.3172311078
H       -1.0958634989    0.3616478116    5.5066567515
H        1.5500254790   -1.2125281671    2.5034781729
H        0.8759316269    1.1496606544    6.8080201705
H        2.2272052374   -3.6518833213    3.6136353700
H       -0.3098202650   -4.4322667799    3.8349091394
H        5.3228500381   -2.9559012262    5.7202887648
H        3.8976330692   -0.8342625951    2.6148069712
H        4.5405585424    0.2708564243    3.7818006410
28   
torsion grid (-120,)
C        0.0485173892   -0.3934419472    4.0700464340
C       -0.0450608351    0.3318474468    5.2597186147
C        1.3061857338   -0.7172941980    3.5565533406
C        1.1163326934    0.7654739842    5.9041734011
C        1.7151890507   -3.6124438671    4.3962400324
C        0.4355637194   -4.0553527292    4.4258895818
C        2.4893633803   -0.3385138390    4.2056649840
C        2.3619330584    0.4470056563    5.3625911912
C        3.2208621614   -2.4531629094    6.1677904216
C        2.8263232969   -2.2101871964    7.4789157268
C        1.0977142678   -3.0091631121    6.5616485558
C        4.4982024142   -2.2557923676    5.4581814680
C        3.8385192095   -0.7444516901    3.6458126567
N        1.5164311840   -2.5279249714    7.7187049150
N        4.7518281551   -1.6277870128    4.3743849814
N        2.0771972113   -3.0036947076    5.5903463410
S       -0.3698966177   -3.7322742414    5.9579982449
Cl       3.7968630560    1.0686338418    6.1624516067
Cl       3.8246224354   -1.5420566462    8.7190102415
H       -0.8495935113   -0.7182043002    3.5526468296
H       -1.0153400867    0.5699885581    5.6862686289
H        1.3764505067   -1.2925078132    2.6370855939
H        1.0617353219    1.3434624947    6.8207984464
H        2.4238848756   -3.6892135698    3.5832350566
H       -0.0983916784   -4.5481419429    3.6255013695
H        5.3564789851   -2.7510861105    5.9226794967
H        3.7110693550   -1.1766818689    2.6461686974
H        4.4335228878    0.1625321373    3.4814771240
28   
torsion grid (-105,)
C       -0.0045800413   -0.2832156270    4.2552949392
C       -0.0065685335    0.5221926754    5.3964658837
C        1.2099445852   -0.6978201677    3.7056758450
C        1.2050097249    0.9376761797    5.9530525158
C        1.7943523111   -3.6999315699    4.2969334087
C        0.5285649947   -4.1793846933    4.2357503687
C        2.4420662053   -0.3364890422    4.2692621553
C        2.4075520136    0.5244521352    5.3776472128
C        3.1322477234   -2.4895519916    6.1671678227
C        2.6333505715   -2.2449292057    7.4424700757
C        1.0115302598   -3.1296406393    6.4174642295
C        4.4368398586   -2.2218424957    5.5400778044
C        3.7404316482   -0.8369974666    3.6603867667
N        1.3255450203   -2.6176357883    7.5943500393
N        4.7091273499   -1.5927026306    4.4607834615
N        2.0562853666   -3.0930537892    5.5176257880
S       -0.3867602622   -3.8967733249    5.7131610849
Cl       3.9037886520    1.1227105619    6.0766515967
Cl       3.5041468374   -1.4924019562    8.7288900797
H       -0.9405550536   -0.5971279313    3.8023229189
H       -0.9420920291    0.8348273382    5.8516062602
H        1.2059117083   -1.3341844693    2.8252524262
H        1.2236775053    1.5760545843    6.8302895763
H        2.5600372790   -3.7542302767    3.5352810596
H        0.0672847821   -4.6867834552    3.4000032046
H        5.2973605102   -2.6334371841    6.0755629748
H        3.5131104685   -1.4339621017    2.7683204482
H        4.3071052252    0.0259688109    3.2911827907
28   
torsion grid (-90,)
C       -0.0098240538   -0.1758058291    4.6591214851
C        0.1431783089    0.8187990199    5.6272669140
C        1.1185076433   -0.7153785181    4.0397417392
C        1.4194886101    1.2862145220    5.9472875387
C        2.0406510114   -3.9643656642    4.1871560833
C        0.8242300156   -4.5309485858    3.9955175812
C        2.4155910972   -0.2913757745    4.3640351636
C        2.5339007634    0.7412808820    5.3085213310
C        3.0260323908   -2.5198032498    6.1107835590
C        2.3324904088   -2.1877563707    7.2681371140
C        0.9407515058   -3.3059937099    6.1370520966
C        4.3649730686   -2.1742281594    5.5998253367
C        3.6263078738   -0.9090985007    3.6856951179
N        1.0464626831   -2.6576205843    7.2823265480
N        4.6544671164   -1.5406303560    4.5278545467
N        2.0986223229   -3.2667209231    5.3867207354
S       -0.2963967283   -4.2257187362    5.3205431184
Cl       4.1164449019    1.3804875920    5.7271031552
Cl       2.9483731244   -1.2058969860    8.5467015277
H       -0.9983760145   -0.5428352466    4.3984572329
H       -0.7231925677    1.2334616790    6.1345877627
H        0.9952290396   -1.4996109460    3.2973187861
H        1.5564257647    2.0641777763    6.6912740740
H        2.9052712076   -4.0183001796    3.5395233461
H        0.5138069375   -5.1274441152    3.1489800641
H        5.2120115498   -2.5142435356    6.2019203932
H        3.2861028935   -1.6370521732    2.9387096259
H        4.1532987784   -0.1297398539    3.1252580464
28   
torsion grid (-75,)
C       -0.0007156705   -0.1105929030    4.7927921487
C        0.2012413897    0.9502299202    5.6783016333
C        1.0939025161   -0.6958687157    4.1556605752
C        1.4919547874    1.4353708025    5.8979522024
C        2.1173311632   -4.0422369611    4.1369453583
C        0.9223124653   -4.6385311291    3.9047174078
C        2.4058402122   -0.2534832621    4.3829221932
C        2.5734216435    0.8419901386    5.2447712268
C        3.0008903365   -2.5705184098    6.0917347592
C        2.2587446262   -2.2568219470    7.2241526019
C        0.9377918665   -3.4123129131    6.0492974030
C        4.3377346720   -2.1451588007    5.6378680548
C        3.5782011092   -0.9457566868    3.7059851140
N        0.9871283840   -2.7626470672    7.1971366509
N        4.6309136363   -1.4612805277    4.5982640161
N        2.1192175909   -3.3412692081    5.3366821018
S       -0.2478225407   -4.3632932841    5.1925724519
Cl       4.1742424933    1.5071975616    5.5316019684
Cl       2.8035702990   -1.2511335872    8.5165504562
H       -1.0008822871   -0.4937385787    4.6119081696
H       -0.6382355451    1.4029312275    6.1982570574
H        0.9326969054   -1.5285798139    3.4756964546
H        1.6658078747    2.2659210317    6.5744914815
H        3.0057297732   -4.0835861311    3.5214716398
H        0.6561219967   -5.2435589041    3.0491968760
H        5.1741351500   -2.4203838810    6.2857245582
H        3.1734914469   -1.7645185794    3.1000607595
H        4.0729781377   -0.2507879963    3.0211787466
28   
torsion grid (-60,)
C        0.4034216622   -1.0208710757    3.5314520312
C       -0.0683750858    0.2938906674    3.6039505629
C        1.6968940451   -1.3147912980    3.9613065125
C        0.7494376777    1.2947691761    4.1270729814
C        2.4625724961    0.3633297505    0.9181735957
C        1.6836390370    1.2967214256    0.3230945075
C        2.5491228907   -0.3242803048    4.4804493738
C        2.0376868473    0.9782125926    4.5725512625
C        4.5968081604    0.5354761635    2.3910304255
C        5.2120868692    1.7313945023    2.7339268152
C        3.6007054009    2.3184039277    1.5000727875
C        4.8943278763   -0.8785959563    2.7200356618
C        3.9589310900   -0.7140659550    4.8885707988
N        4.6059936959    2.8300995297    2.1850317915
N        4.6534116379   -1.4696057137    3.8252398479
N        3.5493583316    0.9388007936    1.5663896282
S        2.2645498144    2.9428594522    0.5668773636
Cl       2.9973941912    2.2795860385    5.2598344344
Cl       6.5982979420    1.8831102267    3.7549327778
H       -0.2311001704   -1.8109238905    3.1388242270
H       -1.0686588483    0.5428427122    3.2603768613
H        2.0741433416   -2.3317072405    3.8892536670
H        0.3990693732    2.3196040450    4.1959519140
H        2.3082706613   -0.7061275977    0.9461144128
H        0.7812321502    1.1193877604   -0.2447818480
H        5.3733913264   -1.4788222865    1.9399314901
H        4.5375681262    0.1656446024    5.1779373730
H        3.9121807350   -1.3719478881    5.7617942194
28   
torsion grid (-45,)
C        0.2598709695   -1.2835209236    3.6630223882
C       -0.3079163213   -0.0044348087    3.6452600786
C        1.5932490467   -1.4427709248    4.0390651269
C        0.4630080264    1.1009861583    4.0019269289
C        2.4655432095    0.6005511919    1.1828222423
C        1.7471265826    1.5955581363    0.6125813618
C        2.3943956193   -0.3456015434    4.4008873225
C        1.7998104319    0.9239353765    4.3739735357
C        4.7965422674    0.5585128080    2.3405641046
C        5.6103498616    1.6710929487    2.4914717451
C        3.9082788258    2.4137934212    1.4851025663
C        4.9580501341   -0.8681135112    2.7214592815
C        3.8407342917   -0.5869281434    4.7870304138
N        5.0681634847    2.8155709566    1.9697702491
N        4.5428255562   -1.4214401583    3.7936609231
N        3.6832248476    1.0631098261    1.6710506039
S        2.5589605562    3.1589060476    0.6674446642
Cl       2.7223297160    2.3648315924    4.7822690917
Cl       7.1503612832    1.6779945873    3.2801093541
H       -0.3345166668   -2.1512573550    3.3901491409
H       -1.3459502098    0.1351222552    3.3558686340
H        2.0418374964   -2.4325859982    4.0493098173
H        0.0427849930    2.1013974027    3.9841884042
H        2.1754091455   -0.4327737682    1.3133578533
H        0.7625264351    1.5106736741    0.1750679978
H        5.4883404058   -1.5131241258    2.0143672625
H        4.3616584351    0.3594020873    4.9470213749
H        3.8651605451   -1.1394766136    5.7319024878
28   
torsion grid (-30,)
C        0.3630609567   -1.7506063497    3.4216513699
C       -0.7011425657   -0.9174622143    3.7755948403
C        1.6742502036   -1.3836128067    3.7358281279
C       -0.4496286188    0.2810116944    4.4491327488
C        2.7743551762    1.6605746710    1.8438765214
C        2.3768743064    2.6604990810    1.0242074505
C        1.9553598066   -0.1837826801    4.4047500256
C        0.8660203606    0.6288332036    4.7579237191
C        5.1006796198    0.4869854554    2.2001885613
C        6.2341474579    0.8183411251    1.4436066582
C        4.7713287642    2.1750189205    0.7755060937
C        5.0444763755   -0.5594130521    3.2190981521
C        3.3758109145    0.2271726975    4.7441212451
N        6.0410679674    1.8528630729    0.5858496330
N        4.3773466466   -0.7248757603    4.3022903380
N        4.1410458124    1.4016385345    1.7304229188
S        3.6811644509    3.3139248951    0.0418318721
Cl       1.1522490942    2.1526066352    5.5936808809
Cl       7.7811971854    0.0557611277    1.5632086857
H        0.1750224418   -2.6859913636    2.9019055200
H       -1.7237805232   -1.1928533580    3.5332164154
H        2.5029610179   -2.0292723706    3.4656602824
H       -1.2617897763    0.9424404762    4.7341568182
H        2.1486277876    1.0855627688    2.5069484294
H        1.3754594977    3.0582092505    0.9378656632
H        5.8053784989   -1.3211463134    3.0298404851
H        3.5824773471    1.2611514268    4.4310257452
H        3.4435176000    0.2582138549    5.8397587504
28   
torsion grid (-15,)
C        0.1897451070   -1.7729704446    3.5604868427
C       -0.8176464069   -0.8743123039    3.9206468844
C        1.5306177217   -1.4460114112    3.7798640219
C       -0.4797135594    0.3499643522    4.5039831203
C        2.7635932513    1.5142296879    1.6822156240
C        2.3432895404    2.5476892005    0.9165279690
C        1.8971895563   -0.2226703393    4.3591500693
C        0.8644510178    0.6577002629    4.7179391571
C        5.1488833499    0.5534866685    2.1912602929
C        6.3132834615    1.0614526265    1.6066392480
C        4.7941983779    2.3373567245    0.8983685371
C        5.0303296444   -0.6101492052    3.0708383749
C        3.3519297686    0.1444733634    4.5848864328
N        6.1039624516    2.1581118520    0.8296496079
N        4.2735041920   -0.8563132067    4.0760909945
N        4.1546442725    1.4128099372    1.6997755010
S        3.6616022389    3.4281124901    0.1526320565
Cl       1.2583389879    2.2132188170    5.4443247716
Cl       7.9042629697    0.4272116061    1.8397900430
H       -0.0657012081   -2.7280118528    3.1097343805
H       -1.8628784135   -1.1183659961    3.7522137984
H        2.3185591743   -2.1395660621    3.5052980375
H       -1.2468889015    1.0620635091    4.7915470166
H        2.1450739738    0.8157153522    2.2250441723
H        1.3186763716    2.8518676212    0.7549462939
H        5.7638443643   -1.3852717658    2.8326814555
H        3.5498628646    1.1607372850    4.2190260942
H        3.5160444132    0.1914619225    5.6698994165
28   
torsion grid (0,)
C        0.0908843967   -1.8029551989    3.6796159190
C       -0.8826062962   -0.8854697566    4.0831125958
C        1.4462162028   -1.4869750749    3.8084293682
C       -0.4963881395    0.3471041221    4.6168770283
C        2.8479688449    1.4566698200    1.5592761192
C        2.4320063355    2.5052740939    0.8111448973
C        1.8604726007   -0.2569805472    4.3391808748
C        0.8615725739    0.6440820975    4.7386254296
C        5.2316528950    0.5912773929    2.2056493461
C        6.4102911167    1.1796727462    1.7436801221
C        4.8881505883    2.4157676011    0.9688133527
C        5.0493994683   -0.6336562908    2.9868633919
C        3.3302645294    0.1038498897    4.4554537176
N        6.2066927067    2.3027788271    1.0005654508
N        4.1958322760   -0.9222528581    3.8981908901
N        4.2375475071    1.4226044748    1.6721880183
S        3.7559477315    3.4844866141    0.1894272972
Cl       1.3168144337    2.2099928855    5.4070264536
Cl       8.0050537009    0.6042255140    2.0794890504
H       -0.2023125375   -2.7640075182    3.2660451063
H       -1.9388494172   -1.1211110024    3.9862043587
H        2.2100372109   -2.1943393147    3.5024226636
H       -1.2368510774    1.0737372111    4.9362635325
H        2.2291178494    0.7057207856    2.0292171127
H        1.4079465450    2.7699070036    0.5879536355
H        5.7647774701   -1.4205809673    2.7324206589
H        3.4798067064    1.1037535497    4.0316856504
H        3.5854669306    0.1814853706    5.5205494189
28   
torsion grid (15,)
C        0.0153043745   -1.8910882645    3.8174664169
C       -0.9399243471   -0.9985558834    4.3105136865
C        1.3683831180   -1.5405599068    3.8184929791
C       -0.5376995158    0.2456010088    4.8041879250
C        2.9671664799    1.4851243471    1.3693804845
C        2.5956932297    2.5538012245    0.6254390681
C        1.7975738515   -0.2989981860    4.3077590977
C        0.8171970022    0.5779657074    4.7956923826
C        5.3006939380    0.6399018721    2.1900386842
C        6.5031029243    1.2643044530    1.8601417094
C        5.0319475457    2.5025045061    0.9928121654
C        5.0410664334   -0.6236800977    2.8843986962
C        3.2605234948    0.1052282728    4.2828800608
N        6.3440205044    2.4121889794    1.1420612186
N        4.0993404706   -0.9285040375    3.6976017898
N        4.3426136775    1.4713358703    1.5970723092
S        3.9476707101    3.5785943310    0.1560004903
Cl       1.2943521624    2.1576745309    5.4184321505
Cl       8.0707463806    0.7019790140    2.3211762656
H       -0.2905407239   -2.8608769953    3.4344264186
H       -1.9939446962   -1.2624984037    4.3145702481
H        2.1198372622   -2.2296145430    3.4472612501
H       -1.2635014177    0.9534838523    5.1919973999
H        2.3273177530    0.7051711553    1.7585100212
H        1.5897016821    2.8096967695    0.3235978593
H        5.7429112528   -1.4235708304    2.6320706172
H        3.3207541013    1.0833050060    3.7941229304
H        3.6112377597    0.2474149644    5.3132262557
28   
torsion grid (30,)
C        0.3110633084   -1.1911917330    3.3627618095
C       -0.2327873568    0.0464238529    3.0087110123
C        1.5586985033   -1.2567269298    3.9887955594
C        0.4743747368    1.2203896001    3.2827843212
C        6.3084284725    1.4069935848    5.8783035908
C        7.1953505629    2.4287543206    5.8862756155
C        2.2880461223   -0.0954127176    4.2720991657
C        1.7179986533    1.1317505148    3.9072192478
C        6.5206879748   -1.1129845048    5.1511589035
C        7.7255609362   -1.6660804141    4.6977002306
C        8.1850794746    0.3669689761    4.9897815164
C        5.2684949406   -1.8365427418    5.3599541728
C        3.6499110044   -0.1432953967    4.9406103660
N        8.7366557848   -0.7661424707    4.5859428694
N        4.0355855143   -1.4948629682    5.2916407614
N        6.8556168892    0.2397187853    5.3426392790
S        8.7724516663    1.9831126867    5.2510626709
Cl       2.5922739300    2.6326192149    4.2448259530
Cl       7.9673365830   -3.3221785022    4.2665666544
H       -0.2356742736   -2.1064753915    3.1525742822
H       -1.2022783924    0.1057325025    2.5216077673
H        1.9909001414   -2.2091996403    4.2758161059
H        0.0700092189    2.1921155093    3.0174867415
H        5.2891316847    1.4419593680    6.2254784679
H        7.0092167232    3.4371814983    6.2283629678
H        5.4498757867   -2.8938542601    5.5690868837
H        4.3724625497    0.3483641334    4.2734648192
H        3.5840560345    0.4599021093    5.8555275403
28   
torsion grid (45,)
C        0.2142505749   -1.1465640948    3.3740179390
C       -0.3648547630    0.1129728207    3.1968460504
C        1.5160737990   -1.2580461021    3.8696108858
C        0.3610536311    1.2636890648    3.5172886878
C        6.2880130695    1.4575033375    5.5804266830
C        7.1793405382    2.4644018683    5.7234996634
C        2.2646863367   -0.1207733759    4.1959507489
C        1.6583740757    1.1282964486    4.0092894124
C        6.5969546953   -1.1410212597    5.1724841190
C        7.8694190410   -1.7323993897    5.0868300819
C        8.2875925143    0.3116324509    5.3410892856
C        5.3452455481   -1.8857023267    5.0866674012
C        3.6816466495   -0.2171662563    4.7281348588
N        8.8956473160   -0.8526571957    5.1817079387
N        4.1132089506   -1.5880123398    4.8973080803
N        6.9086373442    0.2265225200    5.3452515234
S        8.8492573093    1.9371890372    5.5898838690
Cl       2.5573551311    2.6014390385    4.4100861863
Cl       8.1924346110   -3.4157600568    4.8599861315
H       -0.3474878515   -2.0433999508    3.1270206027
H       -1.3766303387    0.2074578702    2.8120600174
H        1.9800547379   -2.2270314211    4.0181571571
H       -0.0698904805    2.2515346589    3.3886133682
H        5.2171445374    1.5558010983    5.6229120306
H        6.9449897836    3.5051880834    5.8980741898
H        5.5459998210   -2.9554679564    5.1773144990
H        4.3359395327    0.3382271795    4.0410282970
H        3.7035844771    0.2976737974    5.6977228547
28   
torsion grid (60,)
C        0.1552331738   -1.1333882885    3.4700325951
C       -0.4594279589    0.1212000711    3.4330083022
C        1.5078573246   -1.2443349205    3.8031764448
C        0.2821330177    1.2681606328    3.7303667343
C        6.3214276588    1.5160973494    5.3027916559
C        7.1769727337    2.5103961060    5.6304273765
C        2.2725388404   -0.1110511685    4.1052831888
C        1.6297343582    1.1327495532    4.0600201224
C        6.6357496261   -1.1144755538    5.1431817580
C        7.8706571841   -1.7286956457    5.4229448385
C        8.2555063856    0.3140115102    5.7239888702
C        5.4421623167   -1.8540788128    4.7496202442
C        3.7410190469   -0.2067701273    4.4700720883
N        8.8526614842   -0.8654036589    5.7745962196
N        4.2270347714   -1.5693815692    4.4578848556
N        6.9256628400    0.2550107868    5.3539745433
S        8.7906625640    1.9396428884    6.0217337334
Cl       2.5482360986    2.6021712797    4.4332166402
Cl       8.2042536966   -3.4240681549    5.3530594993
H       -0.4183842972   -2.0270441897    3.2393496865
H       -1.5107046637    0.2149081901    3.1747246505
H        2.0024130253   -2.2089359022    3.8367641474
H       -0.1750426489    2.2523250212    3.7076090624
H        5.2882838351    1.6451966502    5.0313193742
H        6.9449436020    3.5656763572    5.6645396407
H        5.6784462648   -2.9190851316    4.7032220945
H        4.3039832782    0.4106471939    3.7567952168
H        3.8689911888    0.2424445300    5.4646046572
28   
torsion grid (75,)
C        0.1711597390   -1.1639308200    3.5508614490
C       -0.4793184176    0.0688203656    3.6527976227
C        1.5548342551   -1.2451089126    3.7284709446
C        0.2570369564    1.2235096804    3.9324399198
C        6.4320306506    1.5076266006    5.0345696557
C        7.2253819024    2.4834281519    5.5318565471
C        2.3146659428   -0.1036081898    4.0116055131
C        1.6361928934    1.1185353117    4.1066446499
C        6.6085113080   -1.1328455079    5.1089844929
C        7.6872264063   -1.7874778847    5.7279278682
C        8.0816453349    0.2491648279    6.0663569522
C        5.5201154606   -1.8212669272    4.4227419722
C        3.8150949322   -0.1692153308    4.2159927577
N        8.5775666406   -0.9518341246    6.3158714534
N        4.3425936851   -1.5037900748    4.0292681158
N        6.9011785270    0.2283504502    5.3487765076
S        8.6169232039    1.8668188249    6.4082394937
Cl       2.5482221637    2.5959070094    4.4581572656
Cl       7.9263951444   -3.4981772077    5.8025875669
H       -0.3982697090   -2.0633078233    3.3323967692
H       -1.5549228745    0.1394842173    3.5158927446
H        2.0773426557   -2.1921328260    3.6482305702
H       -0.2280701160    2.1910007308    4.0145871926
H        5.5288144021    1.6589671934    4.4691889830
H        7.0655788187    3.5482350070    5.4355455001
H        5.7929484998   -2.8645685336    4.2491442376
H        4.2816106436    0.5115945163    3.4915501391
H        4.0417656464    0.2255525738    5.2170181666
28   
torsion grid (90,)
C        0.2566373662   -1.2339409946    3.6052675708
C       -0.4469973355   -0.0574579633    3.8766084961
C        1.6532092192   -1.2434689832    3.6520358573
C        0.2498213804    1.1115129004    4.1949534503
C        6.6139675295    1.4725055505    4.7861547310
C        7.3450300690    2.4358091269    5.3932237156
C        2.3742923803   -0.0861542537    3.9707128755
C        1.6432463292    1.0795241830    4.2370153062
C        6.5279217950   -1.1383074522    5.0910904457
C        7.3616238383   -1.8196521176    5.9868699149
C        7.8275389236    0.2078710878    6.3099216083
C        5.5798191644   -1.7474911243    4.1602618110
C        3.8890209422   -0.0775706564    4.0387228769
N        8.1440407800   -1.0030756495    6.7396610839
N        4.4605926863   -1.3578700260    3.6738856813
N        6.8614207708    0.2079137319    5.3226219748
S        8.4044373071    1.8133231829    6.6501715876
Cl       2.5018020066    2.5726972194    4.6405646156
Cl       7.4160737769   -3.5343791776    6.1956534179
H       -0.2809100405   -2.1449283993    3.3563258330
H       -1.5329480817   -0.0419377532    3.8424036464
H        2.2135939599   -2.1469532278    3.4372421035
H       -0.2768405637    2.0363911370    4.4079683481
H        5.9075261497    1.6139269233    3.9849032717
H        7.3180024491    3.4945334704    5.1764777541
H        5.8893696021   -2.7562139561    3.8750896395
H        4.2492066959    0.6858509548    3.3363318009
H        4.1901497177    0.2547039776    5.0429333501
28   
torsion grid (105,)
C        0.5289412538   -0.1746079930    2.1236879792
C       -0.4339512683    0.6664024595    2.6875270211
C        1.6511097792   -0.5512426705    2.8667682253
C       -0.2712826653    1.1297475210    3.9960593016
C        1.3080563911   -2.9777019087    6.1947065742
C        0.3868732181   -3.4312956007    7.0771568807
C        1.8380131375   -0.1006671000    4.1812472018
C        0.8554184319    0.7424072693    4.7220014887
C        3.9177540104   -3.1341048001    6.1384487961
C        4.6658907554   -3.8107847375    7.1019378275
C        2.6815534329   -3.9638034249    7.7999017135
C        4.3336937862   -2.5185434668    4.8765351543
C        3.0344118609   -0.5307973998    5.0021257433
N        3.9175469424   -4.3065556234    8.1273182154
N        3.8965243018   -1.4641422181    4.2944397837
N        2.6072153326   -3.2563898040    6.6176805441
S        1.0973182991   -4.2489366317    8.4646892363
Cl       1.0309720231    1.3366354328    6.3724622212
Cl       6.3830474405   -4.0025146967    7.0689737418
H        0.4091111152   -0.5363361603    1.1061019303
H       -1.3096640031    0.9647524384    2.1176941271
H        2.4091086320   -1.1979470070    2.4370970837
H       -1.0076009954    1.7838454583    4.4524448057
H        1.1211498539   -2.4631328744    5.2625475541
H       -0.6861910017   -3.3266199678    6.9985619049
H        5.1159854675   -3.0732369729    4.3509111885
H        3.6622037469    0.3377110615    5.2455743563
H        2.6872177861   -0.8839644500    5.9801873858
28   
torsion grid (120,)
C        0.5433837235   -0.3316965577    2.2209133366
C       -0.4646354916    0.4585145108    2.7792986599
C        1.7072134518   -0.6012179620    2.9462263117
C       -0.3040035668    0.9803634547    4.0658319988
C        1.2818585611   -2.8027983338    6.1545379055
C        0.3374232482   -3.2607946367    7.0090527832
C        1.8918504644   -0.0912315160    4.2392548703
C        0.8653024916    0.7019648035    4.7745607752
C        3.8793217127   -3.1166013612    6.0669816559
C        4.5829886597   -3.9111526454    6.9749301660
C        2.5958692142   -3.9811415639    7.6745559440
C        4.3724294177   -2.4288172327    4.8727525292
C        3.1404513873   -0.4004731095    5.0419068200
N        3.8069041760   -4.4291452143    7.9663779928
N        4.0413151110   -1.3064994961    4.3495520446
N        2.5643389290   -3.1845562192    6.5479717059
S        1.0004570116   -4.2159060373    8.3304715953
Cl       1.0342880556    1.3654075538    6.3980223535
Cl       6.2833647431   -4.2158624640    6.9190796261
H        0.4260368062   -0.7384275177    1.2202351603
H       -1.3730482447    0.6719642694    2.2227365642
H        2.4970261091   -1.2101219805    2.5185063668
H       -1.0744003227    1.5965001128    4.5188142873
H        1.1216157631   -2.2166034250    5.2613324382
H       -0.7274246139   -3.0864748880    6.9438941734
H        5.1624930528   -2.9812582659    4.3567589545
H        3.6994950465    0.5326994758    5.1942587919
H        2.8554532384   -0.7304322045    6.0486042154
28   
torsion grid (135,)
C        0.6066805152   -0.4733054382    2.2815004780
C       -0.4419819527    0.2842024274    2.8092549417
C        1.7827841959   -0.6482440666    3.0158430200
C       -0.3085360941    0.8694308018    4.0713957992
C        1.2558796333   -2.6618789707    6.1997899713
C        0.3146424890   -3.1446695453    7.0433851984
C        1.9406294007   -0.0767842050    4.2865398363
C        0.8746648434    0.6864649311    4.7883056023
C        3.8333000199   -3.1032718760    5.9941985403
C        4.5131088920   -4.0180149856    6.8058022817
C        2.5465769183   -4.0394639584    7.5590473324
C        4.3898096735   -2.3350283309    4.8798026522
C        3.2106225111   -0.2739105107    5.0979580702
N        3.7364112387   -4.5795495246    7.7703724112
N        4.1622008685   -1.1518053613    4.4412721982
N        2.5285180996   -3.1415573655    6.5102145847
S        0.9632788839   -4.2491072658    8.2498213354
Cl       1.0066132577    1.4259320487    6.3815200387
Cl       6.1909572361   -4.4130795265    6.6759870611
H        0.5116189558   -0.9282017398    1.2993813647
H       -1.3612223074    0.4237992669    2.2471671512
H        2.6017248742   -1.2335031613    2.6109868153
H       -1.1107880593    1.4621313635    4.4997112864
H        1.0973883892   -1.9968412952    5.3648811134
H       -0.7407256304   -2.9113347584    7.0285432707
H        5.1907004986   -2.8773075179    4.3699029411
H        3.6907294482    0.7105725927    5.1704785545
H        2.9565259755   -0.5743444088    6.1229468167
28   
torsion grid (150,)
C        0.7059410058   -0.6816459713    2.3525855497
C       -0.3803872174    0.0867973798    2.7781212988
C        1.8671605795   -0.7415043551    3.1275701659
C       -0.2981810861    0.7986688126    3.9778636292
C        1.2605994378   -2.4755666765    6.3805767467
C        0.3308453329   -3.0281933523    7.1926857091
C        1.9745314203   -0.0441878038    4.3390966569
C        0.8716612101    0.7293354132    4.7356475207
C        3.7802445275   -3.0771750215    5.9101996948
C        4.4128977062   -4.1787822083    6.5074170740
C        2.4941168552   -4.1746706379    7.3701397660
C        4.4127647384   -2.1756042738    4.9501095714
C        3.2320498171   -0.1036267389    5.1966781503
N        3.6379298044   -4.8398544752    7.4039967065
N        4.2650917269   -0.9434942977    4.6244843865
N        2.5020404676   -3.1027899873    6.4993997742
S        0.9445640795   -4.3833620944    8.1302475098
Cl       0.9366296651    1.6263585398    6.2509761349
Cl       6.0385075110   -4.6898579396    6.2140155840
H        0.6521542122   -1.2341204424    1.4185939276
H       -1.2887705242    0.1377709086    2.1843276530
H        2.7129520114   -1.3343302517    2.7968251358
H       -1.1297126688    1.4029301445    4.3267946656
H        1.1053771904   -1.6667751565    5.6857093936
H       -0.6984131956   -2.7139271950    7.2943358184
H        5.2559577156   -2.6744977845    4.4654352959
H        3.6227138500    0.9211218817    5.2040972155
H        2.9705695396   -0.3603431917    6.2327071876
28   
torsion grid (165,)
C        0.5336375116   -0.3173110799    2.7816321244
C       -0.3361064863   -0.0164123301    3.8357981092
C        1.9043332133   -0.4099683833    3.0213432298
C        0.1740174469    0.1886271663    5.1169515356
C        1.0913826857   -3.1884315748    5.1889357518
C       -0.0396435066   -3.3834844832    5.9060380879
C        2.4461865293   -0.2105554434    4.3031273346
C        1.5517539840    0.0919012014    5.3397288251
C        3.5704820974   -2.8181208800    5.8855301288
C        4.0140723839   -2.7911576736    7.1990069898
C        1.9372576294   -3.1393458604    7.3668550953
C        4.2692569972   -2.6813020936    4.5819084644
C        3.9461252136   -0.3390781044    4.4942692858
N        3.0139852812   -2.9866100521    8.1143889404
N        4.4603687436   -1.6018474433    3.9292306537
N        2.2037282489   -3.0565134098    6.0133209330
S        0.2346476253   -3.3997544046    7.6469486268
Cl       2.1226920939    0.3417124557    6.9840973381
Cl       5.6483632135   -2.5102232374    7.6919209826
H        0.1461710315   -0.4741949589    1.7786312256
H       -1.4064999087    0.0594852655    3.6648228719
H        2.5839019736   -0.6496791234    2.2077365005
H       -0.4856065452    0.4139193387    5.9487402993
H        1.1862294315   -3.0960662877    4.1159253285
H       -1.0400234118   -3.4992767304    5.5137317282
H        4.6664726337   -3.5974526582    4.1342969401
H        4.4348129870    0.4726733387    3.9464661678
H        4.2076481837   -0.2418312092    5.5497762845
28   
torsion grid (180,)
C        0.5341889079   -0.5073904727    3.1660614046
C       -0.2016191530   -0.0854948754    4.2782310364
C        1.9259496633   -0.5495748069    3.2332818516
C        0.4651108094    0.3191290983    5.4340860696
C        1.0897227310   -3.5359892842    4.9100464700
C       -0.0977807558   -3.7552629097    5.5216024186
C        2.6242317016   -0.1691652528    4.3928679682
C        1.8634813702    0.2921065567    5.4766999492
C        3.3906251203   -2.7001352309    5.7857885120
C        3.6497802537   -2.3803864624    7.1120780599
C        1.6335176862   -3.0139391719    7.1199848365
C        4.2205448652   -2.6595083128    4.5608713634
C        4.1381925017   -0.2956943829    4.4103833909
N        2.5730161631   -2.5742060243    7.9359893309
N        4.5991705409   -1.6150277712    3.9316223604
N        2.0670027361   -3.1340333662    5.8132682499
S       -0.0521032335   -3.4442103372    7.2559005785
Cl       2.6390847753    0.8644701789    6.9455912178
Cl       5.1619613706   -1.8120989260    7.7257738970
H        0.0255456747   -0.8083313385    2.2540841281
H       -1.2875119973   -0.0647903486    4.2488936651
H        2.4991923323   -0.8983199992    2.3780686840
H       -0.0873024210    0.6578107905    6.3046807022
H        1.3172235966   -3.6266281532    3.8572419775
H       -1.0172158574   -4.0770109650    5.0531698575
H        4.5445003598   -3.6211732697    4.1499339930
H        4.5724750722    0.4512213860    3.7386654876
H        4.5313308074   -0.0948680887    5.4093009522
