17   
torsion grid (-165,)
C        6.5414838261   -1.3404621373   -2.1202399108
C        7.5041791428   -2.1215650553   -1.4759023192
C        5.2415189910   -1.3092551919   -1.6208518103
C        7.1521210899   -2.8701070750   -0.3537726188
C        4.8649258642   -2.0412579208   -0.4806114697
C        5.8386578384   -2.8453646060    0.1307331082
C        2.7445317670   -2.4481181372    1.4785467024
O        2.3616120939   -2.8900036089   -1.1203089233
S        3.0400202469   -1.8665214626   -0.2296410228
Cl       5.5199057970   -3.8809975130    1.5152681929
H        6.7978860813   -0.7613419803   -3.0024626246
H        8.5255684038   -2.1569802983   -1.8443402272
H        4.4910361345   -0.7012207127   -2.1208107555
H        7.8869021102   -3.4909366887    0.1490232401
H        3.4201471344   -1.9713183416    2.1915714748
H        2.8330554360   -3.5324181388    1.5015733143
H        1.7120598365   -2.1536881017    1.6832502808
17   
torsion grid (-150,)
C        6.5694283146   -1.2523881155   -2.0284295328
C        7.5139286508   -2.0652108944   -1.3980725067
C        5.2488018717   -1.2659026823   -1.5800924013
C        7.1281879551   -2.8936410990   -0.3428947939
C        4.8448439278   -2.0642167080   -0.4977848101
C        5.7983794833   -2.9106032553    0.0895547073
C        2.7888774470   -2.2586574448    1.5084088339
O        2.4318283851   -3.2554882477   -0.9443309518
S        3.0137820903   -2.0146916743   -0.2957100834
Cl       5.4100630704   -4.0499639076    1.3663128516
H        6.8534754435   -0.6189569244   -2.8636250193
H        8.5487248705   -2.0684214866   -1.7290349895
H        4.5075805213   -0.6370720838   -2.0679229488
H        7.8497329093   -3.5445976603    0.1407801779
H        3.5144010624   -1.6809027714    2.0859451582
H        2.8649293564   -3.3228482044    1.7195481386
H        1.7756802725   -1.9064756173    1.7174301279
17   
torsion grid (-135,)
C        6.5728203406   -1.1762250895   -1.9235362271
C        7.5020008483   -2.0297558519   -1.3253737869
C        5.2352843151   -1.2366124591   -1.5279148933
C        7.0890918771   -2.9451869969   -0.3541086728
C        4.8091615243   -2.1169856880   -0.5232989570
C        5.7467331316   -3.0027730453    0.0304267742
C        2.8352190723   -2.0616402024    1.5027689002
O        2.4535819448   -3.4959853885   -0.7302614130
S        2.9816674261   -2.1352826303   -0.3263146929
Cl       5.3049034087   -4.2399564601    1.1904029535
H        6.8804607930   -0.4788095578   -2.6971840753
H        8.5472400786   -2.0001289344   -1.6203782390
H        4.5014397056   -0.5847005159   -1.9960396117
H        7.7998702129   -3.6295561143    0.0985892810
H        3.4778278261   -1.2747740049    1.9064728021
H        3.0881487449   -3.0345240484    1.9178508212
H        1.7860312804   -1.8309792911    1.7020068983
17   
torsion grid (-120,)
C        6.5470730064   -1.1274618117   -1.8341634615
C        7.4770349501   -2.0157959031   -1.2889467041
C        5.1973769119   -1.2580973290   -1.4999181697
C        7.0583609160   -3.0274685445   -0.4207868112
C        4.7663248037   -2.2471157935   -0.6068276694
C        5.7067791197   -3.1482103954   -0.0865384554
C        2.8818813896   -1.9895378018    1.4118379829
O        2.4589492675   -3.7410442275   -0.5927991921
S        2.9451004077   -2.3228770470   -0.3944589220
Cl       5.2481865445   -4.4590572518    0.9803913307
H        6.8643283442   -0.3499266382   -2.5229700579
H        8.5299586379   -1.9346239767   -1.5443181327
H        4.4607209162   -0.5868458797   -1.9354985796
H        7.7727157383   -3.7303748031   -0.0033648738
H        3.3630523372   -1.0303485064    1.6208462751
H        3.3648779827   -2.8013416341    1.9541419796
H        1.8211700231   -1.9460194163    1.6699538832
17   
torsion grid (-105,)
C        6.3377918281   -3.2967977046   -2.0062223465
C        7.2611826133   -2.3256137875   -1.6093651405
C        5.1324175835   -3.4213493404   -1.3123757870
C        6.9740478836   -1.4782056424   -0.5366448274
C        4.8313408070   -2.5756797012   -0.2382217953
C        5.7575689240   -1.5962144041    0.1429708710
C        2.3420497036   -1.4502386480   -0.1640101049
O        3.2798276159   -2.6887676335    2.0496349548
S        3.2099422562   -2.9038576376    0.5569707940
Cl       5.4318169740   -0.4730338055    1.4445830824
H        6.5576727117   -3.9597347851   -2.8380310142
H        8.2090916445   -2.2238057755   -2.1304603760
H        4.4181920868   -4.1925762081   -1.5931090018
H        7.6830173753   -0.7170207166   -0.2256995151
H        2.3711619486   -1.5187288002   -1.2542817497
H        2.8165321475   -0.5321861390    0.1862096922
H        1.3113839396   -1.5001953633    0.1950659173
17   
torsion grid (-90,)
C        6.2474722057   -3.2049634447   -2.0352145795
C        7.2290487505   -2.2977986140   -1.6232200741
C        5.0763472363   -3.3349882599   -1.2883511204
C        7.0252320043   -1.5131749319   -0.4872716041
C        4.8668443486   -2.5599049709   -0.1406128203
C        5.8372609323   -1.6282206929    0.2452139990
C        2.3389517044   -1.5764657964   -0.2757134609
O        3.2490906328   -2.4310537597    2.1226768142
S        3.2481896821   -2.8630707855    0.6783414079
Cl       5.6037891534   -0.5453035424    1.5986459840
H        6.3971483658   -3.8144897645   -2.9216776432
H        8.1532922466   -2.1953724595   -2.1850820636
H        4.3214497136   -4.0626321666   -1.5812220782
H        7.7737232812   -0.7943027936   -0.1683257779
H        2.4002990279   -1.8026823388   -1.3425467040
H        2.7714370944   -0.5978027584   -0.0563432545
H        1.3020423108   -1.6145453567    0.0666158119
17   
torsion grid (-75,)
C        6.1735349678   -3.1031199302   -2.0555653644
C        7.2228500586   -2.2826174035   -1.6267107016
C        5.0237667545   -3.2050492667   -1.2751124931
C        7.1065414427   -1.5660738037   -0.4369096396
C        4.8956211217   -2.4910109135   -0.0749013405
C        5.9394422471   -1.6547522095    0.3359398019
C        2.2984013786   -1.7326319181   -0.3692195027
O        3.2274664252   -2.0971556028    2.1325593892
S        3.2880745358   -2.7726929483    0.7873220837
Cl       5.8577163197   -0.6675257560    1.7775875648
H        6.2537661548   -3.6650616456   -2.9816346171
H        8.1317026366   -2.1988501275   -2.2159775617
H        4.2200815272   -3.8702978568   -1.5866139918
H        7.9107013684   -0.9198564053   -0.0986027221
H        2.3610874147   -2.1309413558   -1.3835713260
H        2.6716489253   -0.7070037148   -0.3270746125
H        1.2693633425   -1.7748461305   -0.0045317519
17   
torsion grid (-60,)
C        6.1287765984   -2.9966117556   -2.0758539446
C        7.2351116608   -2.2728181846   -1.6186846179
C        4.9805319604   -3.0606596293   -1.2898200423
C        7.1812905972   -1.6313031025   -0.3835897861
C        4.9063771936   -2.4067541009   -0.0497905642
C        6.0228088196   -1.6937746578    0.4056405529
C        2.2339966702   -1.9028715977   -0.4274288213
O        3.2113766175   -1.7025231636    2.0494966226
S        3.3170333089   -2.6381688357    0.8720508324
Cl       6.0747540453   -0.8574544104    1.9420776970
H        6.1602125611   -3.5105680678   -3.0322603606
H        8.1398516534   -2.2116615712   -2.2169148087
H        4.1360699618   -3.6498579028   -1.6389445537
H        8.0346778521   -1.0718722060   -0.0130438902
H        2.2518407321   -2.4903941204   -1.3460396651
H        2.5580689059   -0.8760129198   -0.6083976588
H        1.2305314933   -1.9109214520    0.0041575548
17   
torsion grid (-45,)
C        6.1172315762   -2.8779821156   -2.1016097720
C        7.2624272222   -2.2616756705   -1.5896486908
C        4.9511479140   -2.9064514368   -1.3380426703
C        7.2354359777   -1.7039587208   -0.3130890198
C        4.8962813920   -2.3182733746   -0.0643737568
C        6.0660117732   -1.7457781617    0.4585900299
C        2.1627547382   -2.0981029464   -0.4497355246
O        3.1863968231   -1.3269079193    1.8706422555
S        3.3354736953   -2.4899697944    0.9182460714
Cl       6.1741053997   -1.0950962010    2.0798864390
H        6.1277208793   -3.3328402237   -3.0879681314
H        8.1773671849   -2.2235861722   -2.1741134636
H        4.0738822042   -3.3947936510   -1.7495170157
H        8.1224535079   -1.2408196031    0.1077289388
H        2.0730954814   -2.9183824567   -1.1635000974
H        2.4753414418   -1.1729037934   -0.9367887214
H        1.2085514828   -1.9510305816    0.0604676511
17   
torsion grid (-30,)
C        6.1128126237   -2.7762209675   -2.1305224273
C        7.2932818361   -2.2748871352   -1.5774576756
C        4.9345349987   -2.7565367394   -1.3826220562
C        7.2931216172   -1.7837380804   -0.2720943809
C        4.9065953152   -2.2291408660   -0.0830600466
C        6.1136070140   -1.7833102565    0.4806551109
C        2.1405335553   -2.2457024458   -0.4002396962
O        3.1979542545   -0.9797648801    1.6653153327
S        3.3801457295   -2.3049687006    0.9573272796
Cl       6.2306748193   -1.2572335690    2.1459390158
H        6.1030782661   -3.1778189081   -3.1397778401
H        8.2153953833   -2.2753228439   -2.1518082314
H        4.0285245575   -3.1403735878   -1.8376232803
H        8.2071822779   -1.4141486193    0.1819956106
H        2.0681997402   -3.1954073298   -0.9340119116
H        2.3737029941   -1.4170970571   -1.0712209106
H        1.2013372787   -2.0489053252    0.1205026416
17   
torsion grid (-15,)
C        6.1111332322   -2.6940396778   -2.1563919908
C        7.3132547092   -2.3029239070   -1.5635396376
C        4.9227863069   -2.6306474601   -1.4249350342
C        7.3257618232   -1.8701198253   -0.2366510121
C        4.9106981372   -2.1694109567   -0.1017143053
C        6.1352406568   -1.8228250460    0.4931524986
C        2.1367827631   -2.3665652402   -0.3558318379
O        3.1795897097   -0.7126622490    1.4301013807
S        3.3987229558   -2.1346628051    0.9553621377
Cl       6.2328493513   -1.3538884797    2.1773626064
H        6.0919868176   -3.0440045650   -3.1845981392
H        8.2426624139   -2.3414633064   -2.1246696374
H        4.0013226528   -2.9256059478   -1.9132492973
H        8.2544331249   -1.5809992364    0.2452251223
H        2.1620057514   -3.3751999334   -0.7743543580
H        2.2619136151   -1.5996876429   -1.1227353860
H        1.1899438446   -2.2100603445    0.1648339545
17   
torsion grid (0,)
C        6.0846946921   -2.6097763299   -2.1689904249
C        7.3053006413   -2.3293202082   -1.5510865579
C        4.8955022897   -2.5009533543   -1.4437996726
C        7.3368769153   -1.9518263160   -0.2073815062
C        4.9059687535   -2.1108124918   -0.0989446923
C        6.1439494637   -1.8551811738    0.5121244647
C        2.1365001189   -2.4312816498   -0.2786129393
O        3.1587810912   -0.4764376426    1.2058044816
S        3.4023841054   -1.9513775419    0.9558481128
Cl       6.2411128662   -1.4149830206    2.2054354362
H        6.0528564753   -2.9089546249   -3.2128005063
H        8.2347161778   -2.4068289636   -2.1082104322
H        3.9602346142   -2.7128241565   -1.9489788187
H        8.2779646194   -1.7385487702    0.2896866656
H        2.2608514347   -3.4669032378   -0.6038500369
H        2.1597691045   -1.7309483038   -1.1160542327
H        1.1892503685   -2.3227438954    0.2536169256
17   
torsion grid (15,)
C        6.0770791758   -2.5312399123   -2.1857678931
C        7.3049503365   -2.3621350109   -1.5409415587
C        4.8880522948   -2.3756824767   -1.4699511447
C        7.3430614305   -2.0411542814   -0.1829589407
C        4.9066486139   -2.0556601877   -0.1071238670
C        6.1485322178   -1.8935125114    0.5254349596
C        2.1532838685   -2.5100334478   -0.2144868956
O        3.1107680755   -0.2978067894    0.9304729067
S        3.3995644376   -1.7861842391    0.9174238147
Cl       6.2489200081   -1.4888247103    2.2292733350
H        6.0414440544   -2.7792379920   -3.2427703730
H        8.2350179517   -2.4782489055   -2.0902729282
H        3.9459477873   -2.5007239454   -1.9916587970
H        8.2892357130   -1.9054841615    0.3312711730
H        2.3788029818   -3.5548198136   -0.4415196621
H        2.0831901452   -1.9004419335   -1.1176191208
H        1.2106468182   -2.4426479900    0.3327473975
17   
torsion grid (30,)
C        6.0712027000   -2.4373571598   -2.2062377694
C        7.2972086380   -2.3950915220   -1.5353800173
C        4.8868117500   -2.2195765965   -1.5012603483
C        7.3374439128   -2.1333413384   -0.1653451926
C        4.9077692895   -1.9632536703   -0.1249983936
C        6.1451910775   -1.9202491158    0.5321523299
C        2.1940477490   -2.5870035061   -0.1378695339
O        3.0169132425   -0.1572938460    0.6071245325
S        3.3885230651   -1.6075995989    0.8516453570
Cl       6.2522443787   -1.5830690760    2.2519245961
H        6.0362625099   -2.6343551508   -3.2739219188
H        8.2249209489   -2.5617631184   -2.0756668117
H        3.9442990986   -2.2366946379   -2.0375235543
H        8.2826580297   -2.0922574274    0.3665424322
H        2.5157053967   -3.6274071257   -0.2282586161
H        2.0592842948   -2.1178259261   -1.1141315149
H        1.2536388787   -2.5300092049    0.4145951415
17   
torsion grid (45,)
C        6.0616322708   -2.3437578876   -2.2132609406
C        7.2710605791   -2.4328020395   -1.5149225185
C        4.8834741658   -2.0635951947   -1.5223155369
C        7.3005142545   -2.2398048928   -0.1336903992
C        4.8957320214   -1.8698815791   -0.1357736746
C        6.1120563713   -1.9632738690    0.5503048492
C        2.2598990745   -2.6938421201   -0.0317499976
O        2.8720019104   -0.1146442795    0.2593777657
S        3.3524653903   -1.4586299803    0.7755704019
Cl       6.2022175633   -1.7355196858    2.2901350696
H        6.0377591236   -2.4868783517   -3.2897821907
H        8.1952165863   -2.6485091436   -2.0438807718
H        3.9527542498   -1.9616362984   -2.0712863356
H        8.2330581068   -2.3029925148    0.4180675918
H        2.6679283809   -3.7019142027    0.0761724136
H        2.1279610244   -2.4274442737   -1.0816059181
H        1.2991828805   -2.6153273194    0.4820069735
17   
torsion grid (60,)
C        6.0581201270   -2.2336272833   -2.2431458108
C        7.2351689019   -2.4621598545   -1.5196887541
C        4.8901694587   -1.8818500118   -1.5686852456
C        7.2438804976   -2.3391914957   -0.1298864776
C        4.8883333408   -1.7503864009   -0.1755479620
C        6.0646404686   -1.9915275081    0.5382929075
C        2.3594914321   -2.7514568869    0.0935047506
O        2.7385553984   -0.1259050753   -0.1071869502
S        3.3215805075   -1.2943721781    0.6671335087
Cl       6.1065484197   -1.8794355403    2.2919081625
H        6.0538110263   -2.3244478302   -3.3255985765
H        8.1515501317   -2.7336388499   -2.0364028204
H        3.9824906858   -1.6531269792   -2.1210123508
H        8.1510208275   -2.5141970194    0.4399204568
H        2.8310026624   -3.6790570228    0.4283891298
H        2.2898216909   -2.7168714361   -0.9949924042
H        1.3639550972   -2.6484895905    0.5311725953
17   
torsion grid (75,)
C        6.0917496139   -2.1319711081   -2.2708488940
C        7.2223404927   -2.4808529548   -1.5219448006
C        4.9225001807   -1.7421530544   -1.6181111327
C        7.1849337971   -2.4463883786   -0.1265001298
C        4.8811498501   -1.6936911483   -0.2220153199
C        6.0054136746   -2.0611604450    0.5181433475
C        2.4531053414   -2.8044731355    0.2477653422
O        2.6358241785   -0.2317606209   -0.4007786843
S        3.2967449668   -1.2012439107    0.5623052601
Cl       5.9596639975   -2.0767406551    2.2761257009
H        6.1244314079   -2.1596945646   -3.3563072063
H        8.1391254106   -2.7802684905   -2.0222571674
H        4.0432099924   -1.4212342016   -2.1723220505
H        8.0547172163   -2.7198612450    0.4626075909
H        2.9760228251   -3.6174099786    0.7582958458
H        2.4314649092   -2.9678161120   -0.8314183624
H        1.4367506141   -2.7000636037    0.6343720259
17   
torsion grid (90,)
C        6.1434548577   -2.0351629741   -2.2983031633
C        7.2155454340   -2.4793161236   -1.5160755533
C        4.9562156325   -1.6304628326   -1.6850787045
C        7.1051329582   -2.5269845391   -0.1235787329
C        4.8438349720   -1.6686607964   -0.2944311944
C        5.9113036299   -2.1247894167    0.4796077528
C        2.4822566503   -2.8022977886    0.3963422478
O        2.5378311743   -0.3540030914   -0.6639729343
S        3.2472642676   -1.1297161172    0.4304899686
Cl       5.7593101869   -2.2302999017    2.2297120758
H        6.2342640537   -1.9998975358   -3.3802752244
H        8.1444904843   -2.7896608039   -1.9864289809
H        4.1125777057   -1.2482388581   -2.2557667455
H        7.9294188268   -2.8744606529    0.4914752026
H        3.0417335375   -3.4880902339    1.0371737071
H        2.4762028312   -3.1449432130   -0.6402684359
H        1.4603752914   -2.6832426847    0.7635585185
17   
torsion grid (105,)
C        6.2036007214   -1.9317071783   -2.3180949360
C        7.2294988475   -2.4513157699   -1.5222347210
C        4.9926636178   -1.5522301469   -1.7339195121
C        7.0528396186   -2.5911996803   -0.1422162643
C        4.8048713947   -1.7059202749   -0.3598591569
C        5.8390358562   -2.2099232823    0.4316868087
C        2.4695666579   -2.7825935946    0.5507971057
O        2.4668636472   -0.4960741495   -0.8476175035
S        3.2083527772   -1.1137488140    0.3224645635
Cl       5.6298337634   -2.3762024198    2.1722886118
H        6.3481348930   -1.8151605332   -3.3884576905
H        8.1757987936   -2.7430198919   -1.9693039438
H        4.1779394999   -1.1246220562   -2.3138340488
H        7.8454126272   -2.9854415603    0.4861471607
H        3.0484881036   -3.3575918104    1.2757136754
H        2.4474862361   -3.2759445241   -0.4229867120
H        1.4533809075   -2.6201135209    0.9170715944
17   
torsion grid (120,)
C        6.2590817187   -1.8241588636   -2.3495262155
C        7.2495700999   -2.3955111754   -1.5459215449
C        5.0145492760   -1.5066789060   -1.8005785736
C        7.0052438539   -2.6340427140   -0.1903273312
C        4.7441737949   -1.7875402980   -0.4589587182
C        5.7603213123   -2.3075287224    0.3497249476
C        2.4134267927   -2.7857336687    0.6502430188
O        2.3673734102   -0.7090405443   -1.0585804122
S        3.1339080107   -1.1651455845    0.1677079000
Cl       5.5204369057   -2.5313624645    2.0809791846
H        6.4561621555   -1.6163815911   -3.3974048442
H        8.2215737389   -2.6430659422   -1.9634406762
H        4.2223418230   -1.0551630652   -2.3928544359
H        7.7746052502   -3.0532761837    0.4505418213
H        2.9771103424   -3.2250862073    1.4726578755
H        2.4107889131   -3.4369774145   -0.2262416519
H        1.3890201367   -2.5701454707    0.9621580166
17   
torsion grid (135,)
C        6.3284400550   -1.7093904180   -2.3650609852
C        7.2888818864   -2.3474939105   -1.5763816572
C        5.0619528911   -1.4464323345   -1.8405917898
C        6.9884461499   -2.6993666985   -0.2585189799
C        4.7260942333   -1.8516264682   -0.5428899599
C        5.7217224121   -2.4222152196    0.2607564734
C        2.3912732650   -2.7343923930    0.7791542440
O        2.3064453008   -0.9351242209   -1.2326307975
S        3.0980419087   -1.2110361391    0.0311500324
Cl       5.4595122677   -2.7714362742    1.9678051076
H        6.5639709471   -1.4084466237   -3.3818650791
H        8.2781563086   -2.5579763051   -1.9730719872
H        4.2915495290   -0.9619909659   -2.4348411339
H        7.7340065682   -3.1672834449    0.3766924904
H        2.8109651927   -2.8956615346    1.7697801160
H        2.5650113669   -3.5928051221    0.1273892374
H        1.3208870733   -2.5267069221    0.8466892049
17   
torsion grid (150,)
C        6.3976867719   -1.6120185038   -2.3469859427
C        7.3298578823   -2.3090271935   -1.5742912696
C        5.1131450236   -1.3932559357   -1.8511276816
C        6.9760734893   -2.7623778451   -0.3034013567
C        4.7205396188   -1.8937416186   -0.5994816472
C        5.6894247743   -2.5265985784    0.1917928557
C        2.3938993916   -2.6303569048    0.9221582309
O        2.2435963046   -1.2325890666   -1.3882828077
S        3.0557416309   -1.2608065735   -0.1075835050
Cl       5.3916622294   -3.0330841307    1.8533111462
H        6.6675892744   -1.2342472910   -3.3289453048
H        8.3337483749   -2.4911727359   -1.9474782573
H        4.3676601559   -0.8778369037   -2.4504611751
H        7.6955109106   -3.2838963430    0.3199608410
H        2.7399785093   -2.5204878357    1.9478122740
H        2.6590855545   -3.6065171991    0.5131729764
H        1.3123977690   -2.4841617411    0.8668433900
17   
torsion grid (165,)
C        6.4503335913   -1.5152730349   -2.3184190465
C        7.3686354856   -2.2471831736   -1.5605239201
C        5.1476785092   -1.3544745700   -1.8537520249
C        6.9743466359   -2.7977639199   -0.3431565990
C        4.7166128276   -1.9325162797   -0.6454925050
C        5.6641818042   -2.6246276354    0.1215638589
C        2.3911692499   -2.5247909461    1.0120068380
O        2.1835307647   -1.6953026199   -1.5367433842
S        2.9821345520   -1.3796961189   -0.2862998891
Cl       5.3293342187   -3.3169976423    1.7077227530
H        6.7444304939   -1.0696354375   -3.2642404154
H        8.3886423030   -2.3868441682   -1.9072766911
H        4.4225937987   -0.8115866368   -2.4539879401
H        7.6771038200   -3.3600403928    0.2634676811
H        2.8345676922   -2.2695725238    1.9732717146
H        2.5813808077   -3.5642401257    0.7431005539
H        1.3146122222   -2.3369346661    1.0283184186
17   
torsion grid (180,)
C        6.5008332107   -1.4317343581   -2.1639136046
C        7.4825134848   -2.1712222615   -1.4978980833
C        5.2174139054   -1.3612891342   -1.6301119617
C        7.1648331489   -2.8309626407   -0.3131932042
C        4.8689863098   -2.0257341051   -0.4392594457
C        5.8679317947   -2.7611914298    0.2136493615
C        2.7123708209   -2.5727908011    1.4671586448
O        2.2812991437   -2.3870930878   -1.1613816581
S        3.0798598983   -1.6803537976   -0.0825447338
Cl       5.6184771918   -3.6510167797    1.7129269198
H        6.7313316910   -0.9122941613   -3.0894261311
H        8.4916174735   -2.2373717519   -1.8947409539
H        4.4511966948   -0.7958993001   -2.1547677343
H        7.9150708323   -3.4111245466    0.2146139087
H        3.3106421341   -2.1908323677    2.2951355509
H        2.8516319586   -3.6439814110    1.3273059822
H        1.6542528514   -2.3548555487    1.6331408821
