27
0 1 C9H11NO5S
O                     1.167048928567    -2.316423433549    -0.123183818472
C                     0.039175216452    -2.707879137121     0.519438900048
O                     0.006396990462    -3.674633459554     1.254927932705
C                    -1.169797829548    -1.794382574448     0.209597451538
C                    -1.521495089297    -1.988052363455    -1.271387354831
C                    -1.666726377737    -3.295456106631    -1.762717112880
H                    -1.500312612397    -4.146268988106    -1.106006178273
C                    -2.019880509973    -3.531460845091    -3.089904363039
H                    -2.148311411537    -4.541847691247    -3.464952286890
C                    -2.226353238875    -2.437794232688    -3.932145150504
S                    -2.664529426866    -2.721794677392    -5.639709816372
O                    -3.113748802396    -4.104990043528    -5.797724295813
O                    -3.429231073593    -1.586299638671    -6.125071556174
O                    -1.191744665886    -2.627438750574    -6.385196461777
H                    -0.924472841046    -3.536073883924    -6.623493744083
C                    -2.098718913059    -1.127863393159    -3.470707126098
H                    -2.285702018833    -0.294064675571    -4.139928381476
C                    -1.741849358834    -0.912074631758    -2.138826005287
H                    -1.644200976079     0.107919664788    -1.785742295954
N                    -2.346345875345    -2.159328473596     1.003503044411
H                    -2.614146358803    -3.121897909185     0.805218999463
H                    -2.097225410926    -2.142592836842     1.992431024410
C                    -0.782839772426    -0.350125386471     0.570322358082
H                    -1.650727620249     0.300485103291     0.444888372275
H                     0.047967448181     0.013020701608    -0.036681945106
H                    -0.482178410789    -0.300757333215     1.622060831306
H                     1.866178459667    -2.952357680216     0.124222857925
