27
0 1 C9H11NO5S
O                    -3.286417421199    -2.523156835144     1.205901087623
C                    -1.976493773189    -2.866521368903     1.077620154882
O                    -1.515252830251    -3.867054131047     1.588227531793
C                    -1.201462063425    -1.840753812491     0.225179069214
C                    -1.594556660569    -2.056930212074    -1.242881515135
C                    -1.669724108426    -3.357318600050    -1.765545480402
H                    -1.490353735422    -4.215566257290    -1.123264197602
C                    -1.978316190710    -3.569249421456    -3.108183101706
H                    -2.057309859680    -4.573550269305    -3.512170901692
C                    -2.209609082368    -2.462463188348    -3.927916728252
S                    -2.597552028239    -2.719415644823    -5.651645588279
O                    -2.987914964996    -4.114655687536    -5.856712086953
O                    -3.396032469226    -1.603101856501    -6.127779710509
O                    -1.114579293595    -2.547050450940    -6.362726687227
H                    -0.801218467376    -3.438837021119    -6.608109668259
C                    -2.147825298767    -1.160139175971    -3.430984772161
H                    -2.349818801878    -0.317532478340    -4.084806907207
C                    -1.835241997916    -0.964497476881    -2.084741115089
H                    -1.768654237762     0.038470204238    -1.678476694199
N                    -1.499975928688    -0.462937432157     0.636021978957
H                    -2.506925631275    -0.329007643819     0.715073322952
H                    -1.101488063248    -0.288832848658     1.557126517096
C                     0.307852800553    -2.084295627254     0.384896610256
H                     0.847810086560    -1.364903017031    -0.234851962949
H                     0.576216767780    -3.096077231076     0.079341724698
H                     0.610405224577    -1.957335362077     1.429328453268
H                    -3.709396909725    -3.225458878875     1.736276614795
