
  -OEChem-12102412493D

 22 21  0     1  0  0  0  0  0999 V2000
    1.7459    2.9048   -1.7191 O   0  0  0  0  0  0  0  0  0  0  0  0
    1.2089    1.6727   -1.6000 C   0  0  0  0  0  0  0  0  0  0  0  0
    1.3099    0.8427   -2.4917 O   0  0  0  0  0  0  0  0  0  0  0  0
    0.4898    1.4796   -0.2512 C   0  0  1  0  0  0  0  0  0  0  0  0
    0.3136    0.0078    0.0300 C   0  0  0  0  0  0  0  0  0  0  0  0
   -0.7861   -0.7270   -0.1692 C   0  0  0  0  0  0  0  0  0  0  0  0
   -2.1199   -0.2583   -0.7090 C   0  0  0  0  0  0  0  0  0  0  0  0
   -2.0211    0.3961   -2.4108 P   0  0  0  0  0  0  0  0  0  0  0  0
   -1.6916    1.8464   -2.4981 O   0  0  0  0  0  0  0  0  0  0  0  0
   -3.4662   -0.0309   -3.0065 O   0  0  0  0  0  0  0  0  0  0  0  0
   -3.6887    0.4817   -3.8036 H   0  0  0  0  0  0  0  0  0  0  0  0
   -1.0163   -0.5704   -3.2186 O   0  0  0  0  0  0  0  0  0  0  0  0
   -0.0871   -0.2637   -3.0935 H   0  0  0  0  0  0  0  0  0  0  0  0
   -2.5486    0.5434   -0.0985 H   0  0  0  0  0  0  0  0  0  0  0  0
   -2.8341   -1.0848   -0.7129 H   0  0  0  0  0  0  0  0  0  0  0  0
   -0.7229   -1.7892    0.0547 H   0  0  0  0  0  0  0  0  0  0  0  0
    1.1991   -0.4963    0.4159 H   0  0  0  0  0  0  0  0  0  0  0  0
    1.1395    2.1374    0.8875 N   0  0  0  0  0  0  0  0  0  0  0  0
    2.0869    1.7799    1.0046 H   0  0  0  0  0  0  0  0  0  0  0  0
    1.2256    3.1355    0.7039 H   0  0  0  0  0  0  0  0  0  0  0  0
   -0.4837    1.9557   -0.4049 H   0  0  0  0  0  0  0  0  0  0  0  0
    2.1081    2.9655   -2.6246 H   0  0  0  0  0  0  0  0  0  0  0  0
  1  2  1  0  0  0  0
  1 22  1  0  0  0  0
  2  3  2  0  0  0  0
  2  4  1  0  0  0  0
  4  5  1  0  0  0  0
  4 18  1  0  0  0  0
  4 21  1  0  0  0  0
  5  6  2  0  0  0  0
  5 17  1  0  0  0  0
  6  7  1  0  0  0  0
  6 16  1  0  0  0  0
  7  8  1  0  0  0  0
  7 14  1  0  0  0  0
  7 15  1  0  0  0  0
  8  9  2  0  0  0  0
  8 10  1  0  0  0  0
  8 12  1  0  0  0  0
 10 11  1  0  0  0  0
 12 13  1  0  0  0  0
 18 19  1  0  0  0  0
 18 20  1  0  0  0  0
M  END
$$$$
