
  -OEChem-12102412493D

 17 16  0     0  0  0  0  0  0999 V2000
   -0.1874    2.1651    0.1507 C   0  0  0  0  0  0  0  0  0  0  0  0
    1.4775    3.2033    0.4008 Br  0  0  0  0  0  0  0  0  0  0  0  0
    0.1597    0.7141   -0.1200 C   0  0  0  0  0  0  0  0  0  0  0  0
   -1.3292   -0.2963   -0.4491 S   0  0  0  0  0  0  0  0  0  0  0  0
   -0.8758   -1.6278   -0.8802 O   0  0  0  0  0  0  0  0  0  0  0  0
   -2.2439    0.4976   -1.2887 O   0  0  0  0  0  0  0  0  0  0  0  0
   -2.1071   -0.4832    1.1978 C   0  0  0  0  0  0  0  0  0  0  0  0
   -3.3743   -1.3056    1.0463 C   0  0  0  0  0  0  0  0  0  0  0  0
   -4.2340   -1.5025    2.8148 Br  0  0  0  0  0  0  0  0  0  0  0  0
   -3.1688   -2.3131    0.6910 H   0  0  0  0  0  0  0  0  0  0  0  0
   -4.1038   -0.8171    0.4037 H   0  0  0  0  0  0  0  0  0  0  0  0
   -1.3791   -0.9785    1.8439 H   0  0  0  0  0  0  0  0  0  0  0  0
   -2.3269    0.5180    1.5743 H   0  0  0  0  0  0  0  0  0  0  0  0
    0.6967    0.2409    0.7052 H   0  0  0  0  0  0  0  0  0  0  0  0
    0.7525    0.6015   -1.0316 H   0  0  0  0  0  0  0  0  0  0  0  0
   -0.7563    2.3041    1.0687 H   0  0  0  0  0  0  0  0  0  0  0  0
   -0.7150    2.6173   -0.6858 H   0  0  0  0  0  0  0  0  0  0  0  0
  1  2  1  0  0  0  0
  1  3  1  0  0  0  0
  1 16  1  0  0  0  0
  1 17  1  0  0  0  0
  3  4  1  0  0  0  0
  3 14  1  0  0  0  0
  3 15  1  0  0  0  0
  4  5  2  0  0  0  0
  4  6  2  0  0  0  0
  4  7  1  0  0  0  0
  7  8  1  0  0  0  0
  7 12  1  0  0  0  0
  7 13  1  0  0  0  0
  8  9  1  0  0  0  0
  8 10  1  0  0  0  0
  8 11  1  0  0  0  0
M  END
$$$$
