29
-1 1 C8H17O3S
C                     1.035163791010    -0.309016545907     0.000483837307
C                     1.916320132962     0.945010864771    -0.056574870062
C                     3.415511519393     0.634093223276     0.025585686385
C                     4.307104553591     1.879031062842    -0.039084711274
C                     5.803676766835     1.557438022553     0.020192354588
C                     6.681176711224     2.807508997482    -0.092333348018
C                     8.191938657910     2.529217723993    -0.045583399012
C                     8.724374959893     1.544618037861    -1.092579550119
S                     8.377815873273     2.027753523845    -2.830656838543
O                     8.760281898515     3.470740316093    -2.898204023439
O                     9.243961362797     1.120746928070    -3.637844557150
O                     6.911755864536     1.784544963722    -3.015307537551
H                     8.311929574554     0.539097288372    -0.968638526684
H                     9.814130534660     1.475773379237    -1.022709928155
H                     8.723833061262     3.478016296360    -0.175660343331
H                     8.459126380616     2.142702318316     0.950785325871
H                     6.447630461291     3.310634750570    -1.034655966100
H                     6.432024025204     3.505034761794     0.722119074090
H                     6.028811623293     1.018873615632     0.954758600039
H                     6.045371144579     0.891018538251    -0.813029898514
H                     4.036847174429     2.563123795956     0.779979839482
H                     4.106393490284     2.417961348178    -0.973990487407
H                     3.689860893631    -0.042771076142    -0.794720663364
H                     3.619516546792     0.084435150602     0.956591362974
H                     1.640570190693     1.623778434696     0.762511572755
H                     1.714126891914     1.492063475239    -0.986827495729
H                    -0.031211263476    -0.060016416385    -0.061401855241
H                     1.268035969720    -0.989463745466    -0.827197792813
H                     1.195825876330    -0.861437960808     0.934603949327
