25
0 1 C6H12NO5P
O                     0.006615191393     3.423738155936    -0.547824812312
C                    -0.755972413544     2.524554926627    -1.211776478692
O                    -1.774524617522     2.822505361039    -1.806051392327
C                    -0.212307939545     1.107720146216    -1.085627537431
C                    -0.672335473847     0.461904954502     0.200987283228
C                     0.079996412159    -0.321251064809     0.991287454179
C                     1.584840882313    -0.362695901150     1.016269111237
H                     1.934789513012    -0.268595704511     2.051328770756
H                     2.041187560481     0.445391101208     0.441467056396
H                     1.948766464298    -1.324981311455     0.639782100545
C                    -0.629225454409    -1.434040876872     1.731416021572
P                    -0.743961509057    -2.802863207872     0.509221176040
O                     0.564881537922    -3.406581532253     0.140223435783
O                    -1.622274946989    -2.228486198750    -0.714174748297
H                    -1.170163961968    -1.545503795844    -1.279524100041
O                    -1.797797921208    -3.816791821224     1.212328897366
H                    -1.643406051365    -4.733243272399     0.923785715021
H                    -0.080750717231    -1.801543712677     2.603262390103
H                    -1.643816565878    -1.159560547150     2.032190193206
H                    -1.756810045263     0.385029947037     0.276785489153
N                    -0.718388311254     0.217452790891    -2.159367516291
H                    -1.637610544888     0.559112749602    -2.448163195542
H                    -0.119519255704     0.280759477711    -2.981805931605
H                     0.876191633112     1.145105309626    -1.129242037379
H                    -0.438840072552     4.289469828881    -0.630294413542
