
  -OEChem-12122420533D

 27 27  0     1  0  0  0  0  0999 V2000
   -3.2864   -2.5232    1.2059 O   0  0  0  0  0  0  0  0  0  0  0  0
   -1.9765   -2.8665    1.0776 C   0  0  0  0  0  0  0  0  0  0  0  0
   -1.5153   -3.8671    1.5882 O   0  0  0  0  0  0  0  0  0  0  0  0
   -1.2015   -1.8408    0.2252 C   0  0  1  0  0  0  0  0  0  0  0  0
   -1.5946   -2.0569   -1.2429 C   0  0  0  0  0  0  0  0  0  0  0  0
   -1.6697   -3.3573   -1.7655 C   0  0  0  0  0  0  0  0  0  0  0  0
   -1.4904   -4.2156   -1.1233 H   0  0  0  0  0  0  0  0  0  0  0  0
   -1.9783   -3.5692   -3.1082 C   0  0  0  0  0  0  0  0  0  0  0  0
   -2.0573   -4.5736   -3.5122 H   0  0  0  0  0  0  0  0  0  0  0  0
   -2.2096   -2.4625   -3.9279 C   0  0  0  0  0  0  0  0  0  0  0  0
   -2.5976   -2.7194   -5.6516 S   0  0  0  0  0  0  0  0  0  0  0  0
   -2.9879   -4.1147   -5.8567 O   0  0  0  0  0  0  0  0  0  0  0  0
   -3.3960   -1.6031   -6.1278 O   0  0  0  0  0  0  0  0  0  0  0  0
   -1.1146   -2.5471   -6.3627 O   0  0  0  0  0  0  0  0  0  0  0  0
   -0.8012   -3.4388   -6.6081 H   0  0  0  0  0  0  0  0  0  0  0  0
   -2.1478   -1.1601   -3.4310 C   0  0  0  0  0  0  0  0  0  0  0  0
   -2.3498   -0.3175   -4.0848 H   0  0  0  0  0  0  0  0  0  0  0  0
   -1.8352   -0.9645   -2.0847 C   0  0  0  0  0  0  0  0  0  0  0  0
   -1.7687    0.0385   -1.6785 H   0  0  0  0  0  0  0  0  0  0  0  0
   -1.5000   -0.4629    0.6360 N   0  0  0  0  0  0  0  0  0  0  0  0
   -2.5069   -0.3290    0.7151 H   0  0  0  0  0  0  0  0  0  0  0  0
   -1.1015   -0.2888    1.5571 H   0  0  0  0  0  0  0  0  0  0  0  0
    0.3079   -2.0843    0.3849 C   0  0  0  0  0  0  0  0  0  0  0  0
    0.8478   -1.3649   -0.2349 H   0  0  0  0  0  0  0  0  0  0  0  0
    0.5762   -3.0961    0.0793 H   0  0  0  0  0  0  0  0  0  0  0  0
    0.6104   -1.9573    1.4293 H   0  0  0  0  0  0  0  0  0  0  0  0
   -3.7094   -3.2255    1.7363 H   0  0  0  0  0  0  0  0  0  0  0  0
  1  2  1  0  0  0  0
  1 27  1  0  0  0  0
  2  3  2  0  0  0  0
  2  4  1  0  0  0  0
  4  5  1  0  0  0  0
  4 20  1  0  0  0  0
  4 23  1  0  0  0  0
  5  6  2  0  0  0  0
  5 18  1  0  0  0  0
  6  7  1  0  0  0  0
  6  8  1  0  0  0  0
  8  9  1  0  0  0  0
  8 10  2  0  0  0  0
 10 11  1  0  0  0  0
 10 16  1  0  0  0  0
 11 12  2  0  0  0  0
 11 13  2  0  0  0  0
 11 14  1  0  0  0  0
 14 15  1  0  0  0  0
 16 17  1  0  0  0  0
 16 18  2  0  0  0  0
 18 19  1  0  0  0  0
 20 21  1  0  0  0  0
 20 22  1  0  0  0  0
 23 24  1  0  0  0  0
 23 25  1  0  0  0  0
 23 26  1  0  0  0  0
M  END
$$$$
