29
-1 1 C8H17O3S
C                     0.995633882949    -0.302177533722     0.094136212440
C                     1.884288988775     0.939592963277    -0.046198784482
C                     3.382761329212     0.622344520805     0.029195309975
C                     4.279767168928     1.857834483370    -0.109803683827
C                     5.778436453248     1.542993342114    -0.032327594553
C                     6.673466107130     2.780760740516    -0.168851441329
C                     8.171514714207     2.459904013273    -0.086217149567
C                     9.053128476940     3.697515648363    -0.222109296340
S                    10.840864437452     3.298407867696    -0.109989133981
O                    11.518311604401     4.619148241857    -0.265598952800
O                    10.999631824937     2.683116749932     1.243056191241
O                    11.080844619707     2.348932112543    -1.239280279005
H                     8.852398918889     4.423511892748     0.572872023843
H                     8.910317084133     4.189054098028    -1.190270727434
H                     8.396321443752     1.973626040174     0.870043440608
H                     8.444489661767     1.747468935055    -0.873198786729
H                     6.456682825954     3.278031973284    -1.125528202921
H                     6.409506021443     3.504035082542     0.616423239488
H                     5.996054447972     1.043796184763     0.922113642038
H                     6.039211643558     0.820358478996    -0.818033740008
H                     4.020803092913     2.582598861418     0.675172324080
H                     4.062979850130     2.356262195889    -1.065379460483
H                     3.638873690405    -0.102587929218    -0.756353511096
H                     3.598875444637     0.122435456061     0.983960450644
H                     1.628409052796     1.663286958706     0.739411362936
H                     1.668189669144     1.438201860781    -1.000710925527
H                    -0.068953796132    -0.046412392155     0.037091470058
H                     1.207300549675    -1.029693405720    -0.698590071977
H                     1.167773605006    -0.803268325262     1.054225071645
