29
-1 1 C8H17O3S
C                     1.007341293723    -0.275495704370     0.113015461406
C                     1.905736837462     0.962835648769     0.009794678578
C                     3.401378201533     0.624794018612     0.007055054074
C                     4.303687233000     1.861256550680    -0.068431201886
C                     5.798175276508     1.517322262402    -0.062268245337
C                     6.724551832568     2.740295834533    -0.182331172416
C                     6.499829644375     3.832372407004     0.878082266867
C                     6.673655494361     3.348793142428     2.315605505501
S                     6.177417749978     4.627401056797     3.533237044274
O                     6.429079069358     3.988256445454     4.857953470784
O                     7.057473091117     5.798144055052     3.238329611661
O                     4.730949193939     4.863260271524     3.232639517285
H                     7.714527879784     3.087781801496     2.534435538292
H                     6.042873904404     2.484502741826     2.541167667265
H                     7.196852171743     4.658870156577     0.703673427639
H                     5.495812991146     4.255357642395     0.775258271695
H                     7.767193326199     2.394530841819    -0.137477985037
H                     6.592039323678     3.186261590441    -1.179320362870
H                     6.031998677712     0.969497153751     0.859270387452
H                     6.012822502122     0.824188838276    -0.889072182136
H                     4.074573143838     2.521982262824     0.774765814091
H                     4.066131529053     2.432429714590    -0.978111862401
H                     3.620536800454    -0.047467423343    -0.836149153421
H                     3.643046691928     0.059637387917     0.918290744157
H                     1.693938950664     1.641223242997     0.845548965257
H                     1.659314102587     1.519516045906    -0.904667050410
H                    -0.055194442515    -0.005020579370     0.110619881465
H                     1.179784594162    -0.961375712346    -0.725894605319
H                     1.207588056945    -0.829472741517     1.037939986952
