22
0 1 C5H10NO5P
O                    -0.697963610828     2.356207346671    -1.999465869206
C                     0.445617419718     1.720964776953    -1.652387649159
O                     1.263464672386     1.328294675183    -2.462838782457
C                     0.581591985841     1.547755164411    -0.135816236301
C                     0.341117980704     0.087043851373     0.219367989052
C                    -0.785153070602    -0.622587587773     0.075460172815
C                    -2.090928572543    -0.145445610503    -0.502659579715
P                    -2.378880796238    -0.918029330615    -2.124165955015
O                    -2.320434443344    -2.400021118881    -2.169000912239
O                    -1.345179947377    -0.196393935079    -3.163462508913
H                    -0.550204479894    -0.736519314228    -3.317952477627
O                    -3.780039082790    -0.223842595126    -2.548597262385
H                    -4.209201245007    -0.691068574651    -3.287242143882
H                    -2.141887538873     0.937851197655    -0.623802451646
H                    -2.928207037758    -0.464111734597     0.128440971805
H                    -0.769051853822    -1.666048856279     0.382190614963
H                     1.211161728235    -0.404974371519     0.648998081509
N                     1.905366810298     1.946233578746     0.351265652233
H                     2.613890522788     1.495603226269    -0.229277387957
H                     2.030248266304     2.949939874832     0.226326166654
H                    -0.169582960029     2.177234608006     0.350328029592
H                    -0.788227193313     2.269019934813    -2.969270861216
