22
0 1 C5H10NO5P
O                     1.745941131655     2.904846287538    -1.719141867297
C                     1.208943083986     1.672653358292    -1.600022674856
O                     1.309912699334     0.842702081824    -2.491678331885
C                     0.489831249899     1.479550884297    -0.251249534842
C                     0.313611439254     0.007768797712     0.029973041721
C                    -0.786078802631    -0.727014296671    -0.169241905317
C                    -2.119923832365    -0.258298238789    -0.709021403657
P                    -2.021149979643     0.396110118771    -2.410775555583
O                    -1.691596838788     1.846393486863    -2.498083619845
O                    -3.466173574974    -0.030888004994    -3.006518660805
H                    -3.688669594019     0.481710237127    -3.803648715635
O                    -1.016334088907    -0.570422309073    -3.218629677635
H                    -0.087055551481    -0.263746139340    -3.093454390690
H                    -2.548605258253     0.543432456251    -0.098541051791
H                    -2.834133331729    -1.084782605471    -0.712881195773
H                    -0.722915231787    -1.789239453511     0.054653067769
H                     1.199082454052    -0.496304299001     0.415931419591
N                     1.139531052140     2.137380335482     0.887471950251
H                     2.086912789569     1.779943307491     1.004641219923
H                     1.225594279932     3.135454688475     0.703923178115
H                    -0.483724968230     1.955662511204    -0.404902826760
H                     2.108068124970     2.965513729479    -2.624568424590
