29
-1 1 C8H17O3S
C                     1.011328225955    -0.431798972881     0.018605997730
C                     1.853370868306     0.846294136730    -0.073556108543
C                     3.361624266300     0.582778850948     0.010423394022
C                     4.210604495968     1.855607266450    -0.079916368814
C                     5.717416563409     1.585812652759     0.018591683486
C                     6.595681253536     2.836427415481    -0.145575962725
C                     6.392478442914     3.895761243295     0.946438023958
C                     7.354805044373     5.072003101866     0.817301189412
S                     7.064531706554     6.343929757068     2.107064466305
O                     8.088442983396     7.391629221730     1.822876486488
O                     5.654349562115     6.785601271662     1.879331836585
O                     7.270777899983     5.617501651160     3.397270204139
H                     7.240450383616     5.581908297661    -0.145154631830
H                     8.397694965537     4.755779638609     0.925655255772
H                     5.371376118082     4.288425270110     0.916343715987
H                     6.526753027247     3.440619967311     1.935017598973
H                     7.649683663286     2.525337087587    -0.151789439822
H                     6.404901047271     3.284573296830    -1.131848748443
H                     5.934766916176     1.120082233867     0.990297506495
H                     5.994815548870     0.845052395946    -0.746030253277
H                     3.907477824709     2.547170722336     0.714091990273
H                     3.997218617153     2.369284299816    -1.028365488427
H                     3.652954000584    -0.110764151048    -0.792202769403
H                     3.584728389337     0.065092935078     0.954311217750
H                     1.563361584623     1.535619839778     0.729859619031
H                     1.629260948728     1.366031752022    -1.014744271229
H                    -0.061445470026    -0.214334476591    -0.042800800026
H                     1.258360334847    -1.126954764138    -0.793219117737
H                     1.191895079216    -0.954608197293     0.965585639855
