
  -OEChem-12122420533D

 22 21  0     1  0  0  0  0  0999 V2000
    1.6407    2.4898   -1.8743 O   0  0  0  0  0  0  0  0  0  0  0  0
    1.2612    2.3505   -0.5836 C   0  0  0  0  0  0  0  0  0  0  0  0
    1.7562    2.9785    0.3308 O   0  0  0  0  0  0  0  0  0  0  0  0
    0.1295    1.3348   -0.4322 C   0  0  1  0  0  0  0  0  0  0  0  0
    0.5289   -0.0269   -0.9578 C   0  0  0  0  0  0  0  0  0  0  0  0
   -0.3134   -0.9166   -1.4991 C   0  0  0  0  0  0  0  0  0  0  0  0
   -1.7856   -0.7345   -1.7535 C   0  0  0  0  0  0  0  0  0  0  0  0
   -2.7701   -1.2029   -0.2745 P   0  0  0  0  0  0  0  0  0  0  0  0
   -2.3821   -2.5143    0.3085 O   0  0  0  0  0  0  0  0  0  0  0  0
   -4.2990   -1.1639   -0.8312 O   0  0  0  0  0  0  0  0  0  0  0  0
   -4.7607   -1.9803   -0.5741 H   0  0  0  0  0  0  0  0  0  0  0  0
   -2.7563    0.0855    0.6661 O   0  0  0  0  0  0  0  0  0  0  0  0
   -1.8373    0.4493    0.9025 H   0  0  0  0  0  0  0  0  0  0  0  0
   -2.1096   -1.3892   -2.5669 H   0  0  0  0  0  0  0  0  0  0  0  0
   -2.0493    0.2914   -2.0259 H   0  0  0  0  0  0  0  0  0  0  0  0
    0.0854   -1.8977   -1.7451 H   0  0  0  0  0  0  0  0  0  0  0  0
    1.5684   -0.3140   -0.8106 H   0  0  0  0  0  0  0  0  0  0  0  0
   -0.3210    1.2200    0.9684 N   0  0  0  0  0  0  0  0  0  0  0  0
    0.3659    0.6882    1.5036 H   0  0  0  0  0  0  0  0  0  0  0  0
   -0.3524    2.1463    1.3981 H   0  0  0  0  0  0  0  0  0  0  0  0
   -0.7105    1.7217   -1.0209 H   0  0  0  0  0  0  0  0  0  0  0  0
    2.3486    3.1631   -1.8911 H   0  0  0  0  0  0  0  0  0  0  0  0
  1  2  1  0  0  0  0
  1 22  1  0  0  0  0
  2  3  2  0  0  0  0
  2  4  1  0  0  0  0
  4  5  1  0  0  0  0
  4 18  1  0  0  0  0
  4 21  1  0  0  0  0
  5  6  2  0  0  0  0
  5 17  1  0  0  0  0
  6  7  1  0  0  0  0
  6 16  1  0  0  0  0
  7  8  1  0  0  0  0
  7 14  1  0  0  0  0
  7 15  1  0  0  0  0
  8  9  2  0  0  0  0
  8 10  1  0  0  0  0
  8 12  1  0  0  0  0
 10 11  1  0  0  0  0
 12 13  1  0  0  0  0
 18 19  1  0  0  0  0
 18 20  1  0  0  0  0
M  END
$$$$
