27
0 1 C9H11NO5S
O                     1.170441118532    -2.328437481349    -0.121315574205
C                     0.037127067809    -2.722887724671     0.508574876038
O                    -0.007357780481    -3.700485554914     1.228912030540
C                    -1.164139009544    -1.796924477179     0.206099219751
C                    -1.511300670254    -1.964628149013    -1.279110881432
C                    -1.668435154452    -3.263479716409    -1.792076118533
H                    -1.500682189761    -4.126125820540    -1.151304456604
C                    -2.020644652449    -3.475742945771    -3.122587543510
H                    -2.124156710289    -4.479835271341    -3.521443557536
C                    -2.222469019939    -2.366238107078    -3.946696375483
S                    -2.681809777474    -2.620385019443    -5.654108320808
O                    -2.499188779991    -1.369986288025    -6.391001911493
O                    -2.134412455679    -3.887539205302    -6.106254231525
O                    -4.312764696538    -2.858165449076    -5.535303666009
H                    -4.754081265519    -2.029622313165    -5.804732602372
C                    -2.061113738932    -1.066391972282    -3.469943856765
H                    -2.195007056377    -0.221794457066    -4.138435768361
C                    -1.704300319825    -0.874148892660    -2.133312444428
H                    -1.574404682202     0.138864498122    -1.770733507317
N                    -2.347425867823    -2.167339989020     0.988255078258
H                    -2.615263912279    -3.127169678394     0.776707058355
H                    -2.103024521099    -2.164797340148     1.978563332342
C                    -0.770672220900    -0.361096918123     0.591807005753
H                    -1.632610508177     0.297776996581     0.467796115051
H                     0.068679253703     0.004956887601    -0.001504212680
H                    -0.479609615272    -0.329578504319     1.646917835380
H                     1.864016088123    -2.974635686236     0.115056164526
