
  -OEChem-12102412493D

 25 24  0     1  0  0  0  0  0999 V2000
   -0.4105    3.3806   -0.4428 O   0  0  0  0  0  0  0  0  0  0  0  0
   -0.7859    2.3237   -1.2028 C   0  0  0  0  0  0  0  0  0  0  0  0
   -1.6594    2.3856   -2.0453 O   0  0  0  0  0  0  0  0  0  0  0  0
   -0.0055    1.0633   -0.8482 C   0  0  1  0  0  0  0  0  0  0  0  0
   -0.5767    0.3924    0.3806 C   0  0  0  0  0  0  0  0  0  0  0  0
    0.1530   -0.3492    1.2307 C   0  0  0  0  0  0  0  0  0  0  0  0
    1.6517   -0.3144    1.3579 C   0  0  0  0  0  0  0  0  0  0  0  0
    1.9317   -0.2736    2.4171 H   0  0  0  0  0  0  0  0  0  0  0  0
    2.1084    0.5431    0.8609 H   0  0  0  0  0  0  0  0  0  0  0  0
    2.0871   -1.2315    0.9436 H   0  0  0  0  0  0  0  0  0  0  0  0
   -0.5250   -1.5239    1.9098 C   0  0  0  0  0  0  0  0  0  0  0  0
   -0.9770   -2.6638    0.5362 P   0  0  0  0  0  0  0  0  0  0  0  0
   -2.3422   -2.4423   -0.0117 O   0  0  0  0  0  0  0  0  0  0  0  0
   -0.7038   -4.1256    1.1859 O   0  0  0  0  0  0  0  0  0  0  0  0
   -1.1778   -4.8231    0.6998 H   0  0  0  0  0  0  0  0  0  0  0  0
    0.2127   -2.5528   -0.5501 O   0  0  0  0  0  0  0  0  0  0  0  0
    0.1434   -1.7321   -1.1171 H   0  0  0  0  0  0  0  0  0  0  0  0
    0.1261   -2.0284    2.6274 H   0  0  0  0  0  0  0  0  0  0  0  0
   -1.4594   -1.2529    2.4080 H   0  0  0  0  0  0  0  0  0  0  0  0
   -1.6549    0.2372    0.3480 H   0  0  0  0  0  0  0  0  0  0  0  0
   -0.0674    0.0379   -1.9175 N   0  0  0  0  0  0  0  0  0  0  0  0
   -1.0328   -0.0131   -2.2507 H   0  0  0  0  0  0  0  0  0  0  0  0
    0.4851    0.3370   -2.7220 H   0  0  0  0  0  0  0  0  0  0  0  0
    1.0373    1.3414   -0.6908 H   0  0  0  0  0  0  0  0  0  0  0  0
   -0.9859    4.1285   -0.6959 H   0  0  0  0  0  0  0  0  0  0  0  0
  1  2  1  0  0  0  0
  1 25  1  0  0  0  0
  2  3  2  0  0  0  0
  2  4  1  0  0  0  0
  4  5  1  0  0  0  0
  4 21  1  0  0  0  0
  4 24  1  0  0  0  0
  5  6  2  0  0  0  0
  5 20  1  0  0  0  0
  6  7  1  0  0  0  0
  6 11  1  0  0  0  0
  7  8  1  0  0  0  0
  7  9  1  0  0  0  0
  7 10  1  0  0  0  0
 11 12  1  0  0  0  0
 11 18  1  0  0  0  0
 11 19  1  0  0  0  0
 12 13  2  0  0  0  0
 12 14  1  0  0  0  0
 12 16  1  0  0  0  0
 14 15  1  0  0  0  0
 16 17  1  0  0  0  0
 21 22  1  0  0  0  0
 21 23  1  0  0  0  0
M  END
$$$$
