
  -OEChem-12102412493D

 25 24  0     1  0  0  0  0  0999 V2000
   -0.4178    3.6417   -1.5299 O   0  0  0  0  0  0  0  0  0  0  0  0
   -1.0320    2.5229   -1.0480 C   0  0  0  0  0  0  0  0  0  0  0  0
   -2.2382    2.4474   -0.9285 O   0  0  0  0  0  0  0  0  0  0  0  0
   -0.0128    1.4124   -0.7862 C   0  0  1  0  0  0  0  0  0  0  0  0
   -0.5696    0.3890    0.1682 C   0  0  0  0  0  0  0  0  0  0  0  0
    0.1722   -0.4405    0.9168 C   0  0  0  0  0  0  0  0  0  0  0  0
    1.6786   -0.4515    0.9651 C   0  0  0  0  0  0  0  0  0  0  0  0
    2.0297   -0.1583    1.9630 H   0  0  0  0  0  0  0  0  0  0  0  0
    2.1275    0.2120    0.2255 H   0  0  0  0  0  0  0  0  0  0  0  0
    2.0534   -1.4637    0.7800 H   0  0  0  0  0  0  0  0  0  0  0  0
   -0.5158   -1.5080    1.7463 C   0  0  0  0  0  0  0  0  0  0  0  0
   -0.9298   -2.9397    0.7081 P   0  0  0  0  0  0  0  0  0  0  0  0
   -1.9895   -2.7585   -0.3171 O   0  0  0  0  0  0  0  0  0  0  0  0
   -1.2141   -4.0668    1.8394 O   0  0  0  0  0  0  0  0  0  0  0  0
   -1.6977   -4.8302    1.4773 H   0  0  0  0  0  0  0  0  0  0  0  0
    0.4897   -3.4291    0.0645 O   0  0  0  0  0  0  0  0  0  0  0  0
    0.4987   -3.2549   -0.8927 H   0  0  0  0  0  0  0  0  0  0  0  0
    0.1136   -1.8547    2.5714 H   0  0  0  0  0  0  0  0  0  0  0  0
   -1.4621   -1.1542    2.1648 H   0  0  0  0  0  0  0  0  0  0  0  0
   -1.6532    0.2979    0.1792 H   0  0  0  0  0  0  0  0  0  0  0  0
    0.3725    0.7601   -2.0606 N   0  0  0  0  0  0  0  0  0  0  0  0
   -0.4350    0.2641   -2.4380 H   0  0  0  0  0  0  0  0  0  0  0  0
    0.6462    1.4658   -2.7449 H   0  0  0  0  0  0  0  0  0  0  0  0
    0.8863    1.8850   -0.3822 H   0  0  0  0  0  0  0  0  0  0  0  0
   -1.1287    4.2790   -1.7375 H   0  0  0  0  0  0  0  0  0  0  0  0
  1  2  1  0  0  0  0
  1 25  1  0  0  0  0
  2  3  2  0  0  0  0
  2  4  1  0  0  0  0
  4  5  1  0  0  0  0
  4 21  1  0  0  0  0
  4 24  1  0  0  0  0
  5  6  2  0  0  0  0
  5 20  1  0  0  0  0
  6  7  1  0  0  0  0
  6 11  1  0  0  0  0
  7  8  1  0  0  0  0
  7  9  1  0  0  0  0
  7 10  1  0  0  0  0
 11 12  1  0  0  0  0
 11 18  1  0  0  0  0
 11 19  1  0  0  0  0
 12 13  2  0  0  0  0
 12 14  1  0  0  0  0
 12 16  1  0  0  0  0
 14 15  1  0  0  0  0
 16 17  1  0  0  0  0
 21 22  1  0  0  0  0
 21 23  1  0  0  0  0
M  END
$$$$
