
  -OEChem-12122420533D

 27 27  0     1  0  0  0  0  0999 V2000
    1.1704   -2.3284   -0.1213 O   0  0  0  0  0  0  0  0  0  0  0  0
    0.0371   -2.7229    0.5086 C   0  0  0  0  0  0  0  0  0  0  0  0
   -0.0074   -3.7005    1.2289 O   0  0  0  0  0  0  0  0  0  0  0  0
   -1.1641   -1.7969    0.2061 C   0  0  1  0  0  0  0  0  0  0  0  0
   -1.5113   -1.9646   -1.2791 C   0  0  0  0  0  0  0  0  0  0  0  0
   -1.6684   -3.2635   -1.7921 C   0  0  0  0  0  0  0  0  0  0  0  0
   -1.5007   -4.1261   -1.1513 H   0  0  0  0  0  0  0  0  0  0  0  0
   -2.0206   -3.4757   -3.1226 C   0  0  0  0  0  0  0  0  0  0  0  0
   -2.1242   -4.4798   -3.5214 H   0  0  0  0  0  0  0  0  0  0  0  0
   -2.2225   -2.3662   -3.9467 C   0  0  0  0  0  0  0  0  0  0  0  0
   -2.6818   -2.6204   -5.6541 S   0  0  0  0  0  0  0  0  0  0  0  0
   -2.4992   -1.3700   -6.3910 O   0  0  0  0  0  0  0  0  0  0  0  0
   -2.1344   -3.8875   -6.1063 O   0  0  0  0  0  0  0  0  0  0  0  0
   -4.3128   -2.8582   -5.5353 O   0  0  0  0  0  0  0  0  0  0  0  0
   -4.7541   -2.0296   -5.8047 H   0  0  0  0  0  0  0  0  0  0  0  0
   -2.0611   -1.0664   -3.4699 C   0  0  0  0  0  0  0  0  0  0  0  0
   -2.1950   -0.2218   -4.1384 H   0  0  0  0  0  0  0  0  0  0  0  0
   -1.7043   -0.8741   -2.1333 C   0  0  0  0  0  0  0  0  0  0  0  0
   -1.5744    0.1389   -1.7707 H   0  0  0  0  0  0  0  0  0  0  0  0
   -2.3474   -2.1673    0.9883 N   0  0  0  0  0  0  0  0  0  0  0  0
   -2.6153   -3.1272    0.7767 H   0  0  0  0  0  0  0  0  0  0  0  0
   -2.1030   -2.1648    1.9786 H   0  0  0  0  0  0  0  0  0  0  0  0
   -0.7707   -0.3611    0.5918 C   0  0  0  0  0  0  0  0  0  0  0  0
   -1.6326    0.2978    0.4678 H   0  0  0  0  0  0  0  0  0  0  0  0
    0.0687    0.0050   -0.0015 H   0  0  0  0  0  0  0  0  0  0  0  0
   -0.4796   -0.3296    1.6469 H   0  0  0  0  0  0  0  0  0  0  0  0
    1.8640   -2.9746    0.1151 H   0  0  0  0  0  0  0  0  0  0  0  0
  1  2  1  0  0  0  0
  1 27  1  0  0  0  0
  2  3  2  0  0  0  0
  2  4  1  0  0  0  0
  4  5  1  0  0  0  0
  4 20  1  0  0  0  0
  4 23  1  0  0  0  0
  5  6  2  0  0  0  0
  5 18  1  0  0  0  0
  6  7  1  0  0  0  0
  6  8  1  0  0  0  0
  8  9  1  0  0  0  0
  8 10  2  0  0  0  0
 10 11  1  0  0  0  0
 10 16  1  0  0  0  0
 11 12  2  0  0  0  0
 11 13  2  0  0  0  0
 11 14  1  0  0  0  0
 14 15  1  0  0  0  0
 16 17  1  0  0  0  0
 16 18  2  0  0  0  0
 18 19  1  0  0  0  0
 20 21  1  0  0  0  0
 20 22  1  0  0  0  0
 23 24  1  0  0  0  0
 23 25  1  0  0  0  0
 23 26  1  0  0  0  0
M  END
$$$$
