17
0 1 Br2C4H8O2S
C                     1.258875192522     0.414928062557    -1.185659789435
Br                    0.876678190390     1.141003471854    -2.978145432919
C                     0.143432652144     0.683875648746    -0.191981692539
S                    -1.329539707449    -0.367610422823    -0.506345113776
O                    -0.831446112129    -1.712955198318    -0.847159553140
O                    -2.261045530587     0.348330285078    -1.385179034536
C                    -2.118383180542    -0.469437051247     1.143893721359
C                    -1.413214155227    -1.457266956783     2.052032809284
Br                   -2.337861540084    -1.523484234681     3.800631151384
H                    -0.385871243550    -1.175482605693     2.278367585650
H                    -1.436036695181    -2.465907740399     1.647014373179
H                    -2.145577052345     0.543820840573     1.552326975047
H                    -3.142476817143    -0.780270902823     0.923101372469
H                    -0.192811871039     1.722454902935    -0.200196396136
H                     0.495062420632     0.419904847221     0.811796333518
H                     1.425767667443    -0.653592175798    -1.314228425242
H                     2.175567128281     0.902157258151    -0.855853945295
