17
0 1 Br2C4H8O2S
C                     1.283072889418     0.379456197562    -1.222373998476
Br                    0.856975430558     1.132305057952    -2.994030824773
C                     0.214983819362     0.679132077771    -0.185543849596
S                    -1.301484530942    -0.326094803738    -0.452857283641
O                    -0.854532642718    -1.683350924319    -0.804697310110
O                    -2.241465576909     0.416231695907    -1.304647227334
C                    -2.037232220128    -0.418797411613     1.220156841215
C                    -2.585628750206     0.922808118334     1.664494017215
Br                   -3.431640168720     0.736794110661     3.443204071925
H                    -3.356590732672     1.286510064738     0.989071228270
H                    -1.812622212211     1.679868366762     1.789210285263
H                    -2.830623823177    -1.162678660363     1.110274468736
H                    -1.276101037877    -0.817090185291     1.894400221160
H                    -0.078194029288     1.730416305277    -0.179761980016
H                     0.592022206249     0.392297767392     0.802716848523
H                     1.410766610084    -0.692750654375    -1.363215174567
H                     2.226469319188     0.835104594650    -0.924164886368
