22
0 1 C5H10NO5P
O                    -0.135407790871     2.329072647463    -2.197852251735
C                     0.949488878747     2.153738023288    -1.395555929757
O                     2.071301315714     2.472424748252    -1.736577012822
C                     0.587599263746     1.499842692450    -0.057649412014
C                     0.440620335816     0.003413933857    -0.283508029435
C                    -0.674015516239    -0.655501097917    -0.623495872829
C                    -2.029800714678    -0.042433349955    -0.888215513025
P                    -2.886353576066     0.380640623162     0.653368593135
O                    -2.354889462579     1.539535428339     1.419889228313
O                    -2.929014350510    -0.993498943952     1.528971066799
H                    -2.313968395257    -0.933886004022     2.280516325590
O                    -4.414844970183     0.509126437444     0.131690606722
H                    -4.985813247259     0.958196696128     0.779984972501
H                    -2.668483232605    -0.738038317411    -1.439055794046
H                    -1.956598895570     0.879985293952    -1.469895892627
H                    -0.621148178134    -1.738753889114    -0.703915155789
H                     1.356344782173    -0.564022789145    -0.127928431926
N                     1.593220091229     1.735324773163     0.976891616796
H                     2.519955154267     1.700495022379     0.551300432356
H                     1.483933424120     2.677633833725     1.346672052482
H                    -0.366110300683     1.909712921562     0.281092266675
H                     0.195646160054     2.706881331156    -3.036108012006
