17
0 1 Br2C4H8O2S
C                    -0.187414930253     2.165109903960     0.150720015013
Br                    1.477464036924     3.203289211305     0.400798094389
C                     0.159680990772     0.714114469721    -0.120032298302
S                    -1.329193694346    -0.296324733228    -0.449080053754
O                    -0.875761729546    -1.627762837461    -0.880208426815
O                    -2.243858140540     0.497595486104    -1.288724126312
C                    -2.107071266232    -0.483178090041     1.197816376408
C                    -3.374343162269    -1.305632714054     1.046326625516
Br                   -4.234040675107    -1.502498114277     2.814796233349
H                    -3.168817475363    -2.313117578845     0.690978074764
H                    -4.103820334347    -0.817065975434     0.403739626458
H                    -1.379090797810    -0.978499611711     1.843901644296
H                    -2.326916260913     0.517989996970     1.574294142374
H                     0.696697898316     0.240915132551     0.705197600884
H                     0.752497338552     0.601490731745    -1.031593453537
H                    -0.756305387721     2.304122989751     1.068713171074
H                    -0.714958359203     2.617278373501    -0.685807373111
