29
-1 1 C8H17O3S
C                     0.993610711470    -0.320017240516     0.124507581723
C                     1.875397631570     0.909218498307    -0.126955158617
C                     3.372475129673     0.625218704490     0.045455248167
C                     4.263016492958     1.848646829261    -0.200043696760
C                     5.760042036442     1.564374329261    -0.030875241239
C                     6.640714429960     2.797736946521    -0.255316187621
C                     8.135583274680     2.495928709700    -0.093096119924
C                     9.047991108160     3.716697152768    -0.234563720122
S                     8.976620279243     4.866353672161     1.199205302541
O                     9.213115014633     3.986268104419     2.384401257568
O                    10.072316677841     5.842552945245     0.928921236973
O                     7.605956522677     5.465188124812     1.159512995286
H                     8.807425597700     4.311032270894    -1.122574044684
H                    10.096521428669     3.409928567527    -0.295085950545
H                     8.317667765847     2.053150770226     0.893278326028
H                     8.432601468183     1.743356439654    -0.840356726092
H                     6.459263496208     3.195392934803    -1.265292349928
H                     6.365531109481     3.594829710233     0.441262968621
H                     5.940141181718     1.175658244901     0.981208586271
H                     6.055659079819     0.760911044531    -0.723289338908
H                     3.972501120066     2.654894707975     0.486628912842
H                     4.078815107736     2.233129961612    -1.213549021261
H                     3.667347340251    -0.183999197194    -0.638549054143
H                     3.552705717276     0.243948704413     1.060593417744
H                     1.581025689252     1.717049378896     0.555992493222
H                     1.694052755515     1.288463617663    -1.141788511537
H                    -0.070386379385    -0.089198332885    -0.005799030797
H                     1.245820840536    -1.134080960796    -0.566028111476
H                     1.130188163897    -0.700292879572     1.144010177388
