22
0 1 C5H10NO5P
O                     1.640657134509     2.489848744013    -1.874260308034
C                     1.261156517812     2.350531936962    -0.583649670257
O                     1.756238861965     2.978484085167     0.330837803202
C                     0.129480609229     1.334811825914    -0.432227114287
C                     0.528903488466    -0.026935379320    -0.957771068314
C                    -0.313393333574    -0.916596472190    -1.499129716119
C                    -1.785560899298    -0.734495698240    -1.753522664136
P                    -2.770092385071    -1.202882099886    -0.274452473834
O                    -2.382145544455    -2.514309272646     0.308476340644
O                    -4.299048608449    -1.163936355839    -0.831198203189
H                    -4.760694631250    -1.980298911882    -0.574096899749
O                    -2.756347589119     0.085498828546     0.666055844307
H                    -1.837266582298     0.449288337904     0.902466493438
H                    -2.109556928009    -1.389188488551    -2.566886579305
H                    -2.049278542446     0.291417180819    -2.025882930032
H                     0.085411932357    -1.897663111966    -1.745055738805
H                     1.568409215532    -0.313973454675    -0.810582194618
N                    -0.320957535502     1.219974481456     0.968365862835
H                     0.365947959698     0.688181653669     1.503578217882
H                    -0.352422385989     2.146282942994     1.398149104469
H                    -0.710468158276     1.721705402793    -1.020903862211
H                     2.348637831805     3.163091465729    -1.891125238656
