29
-1 1 C8H17O3S
C                     0.994995319517    -0.332235339048     0.057132331794
C                     1.869338155625     0.927322052859     0.028124726268
C                     3.371803598501     0.620594410058     0.016082256360
C                     4.255168742006     1.873130863946    -0.014402277469
C                     5.757404712476     1.567018897663    -0.023823256393
C                     6.632123708912     2.823748699938    -0.075116033000
C                     8.131724704963     2.502539403086    -0.072669869009
C                     9.042381591597     3.726502510142    -0.196802052419
S                     9.057494532893     4.472063049852    -1.878110241578
O                     9.351355861537     3.320475753321    -2.785113111946
O                     7.691168161460     5.052034531029    -2.066821915294
O                    10.144143869184     5.492165695431    -1.806570494004
H                    10.084044853528     3.454095078682    -0.002133414967
H                     8.756259305031     4.525630108399     0.495425769580
H                     8.382385927041     1.967273135465     0.856645425065
H                     8.365147624855     1.824914945897    -0.902413977892
H                     6.400577161450     3.413554722612    -0.966656731571
H                     6.397924396093     3.465474807051     0.787688760793
H                     6.009969930033     0.969887559530     0.866136181296
H                     5.989912166377     0.933698410701    -0.891404684153
H                     4.018780656991     2.504205607494     0.854393236273
H                     4.007063451147     2.472930763376    -0.900206874998
H                     3.604604671669    -0.008062835029    -0.855098703580
H                     3.624083446664     0.017526216923     0.900561862946
H                     1.635689197688     1.555329484207     0.898533680159
H                     1.617223548338     1.527920798206    -0.855834206985
H                    -0.073074112772    -0.084222987583     0.065187551963
H                     1.184515713597    -0.963060501457    -0.819678301068
H                     1.204213192242    -0.936979224739     0.948007881071
