
  -OEChem-12122420533D

 29 28  0     0  0  0  0  0  0999 V2000
    0.9936   -0.3200    0.1245 C   0  0  0  0  0  0  0  0  0  0  0  0
    1.8754    0.9092   -0.1270 C   0  0  0  0  0  0  0  0  0  0  0  0
    3.3725    0.6252    0.0455 C   0  0  0  0  0  0  0  0  0  0  0  0
    4.2630    1.8486   -0.2000 C   0  0  0  0  0  0  0  0  0  0  0  0
    5.7600    1.5644   -0.0309 C   0  0  0  0  0  0  0  0  0  0  0  0
    6.6407    2.7977   -0.2553 C   0  0  0  0  0  0  0  0  0  0  0  0
    8.1356    2.4959   -0.0931 C   0  0  0  0  0  0  0  0  0  0  0  0
    9.0480    3.7167   -0.2346 C   0  0  0  0  0  0  0  0  0  0  0  0
    8.9766    4.8664    1.1992 S   0  0  0  0  0  0  0  0  0  0  0  0
    9.2131    3.9863    2.3844 O   0  0  0  0  0  0  0  0  0  0  0  0
   10.0723    5.8426    0.9289 O   0  0  0  0  0  0  0  0  0  0  0  0
    7.6060    5.4652    1.1595 O   0  5  0  0  0  0  0  0  0  0  0  0
    8.8074    4.3110   -1.1226 H   0  0  0  0  0  0  0  0  0  0  0  0
   10.0965    3.4099   -0.2951 H   0  0  0  0  0  0  0  0  0  0  0  0
    8.3177    2.0532    0.8933 H   0  0  0  0  0  0  0  0  0  0  0  0
    8.4326    1.7434   -0.8404 H   0  0  0  0  0  0  0  0  0  0  0  0
    6.4593    3.1954   -1.2653 H   0  0  0  0  0  0  0  0  0  0  0  0
    6.3655    3.5948    0.4413 H   0  0  0  0  0  0  0  0  0  0  0  0
    5.9401    1.1757    0.9812 H   0  0  0  0  0  0  0  0  0  0  0  0
    6.0557    0.7609   -0.7233 H   0  0  0  0  0  0  0  0  0  0  0  0
    3.9725    2.6549    0.4866 H   0  0  0  0  0  0  0  0  0  0  0  0
    4.0788    2.2331   -1.2135 H   0  0  0  0  0  0  0  0  0  0  0  0
    3.6673   -0.1840   -0.6385 H   0  0  0  0  0  0  0  0  0  0  0  0
    3.5527    0.2439    1.0606 H   0  0  0  0  0  0  0  0  0  0  0  0
    1.5810    1.7170    0.5560 H   0  0  0  0  0  0  0  0  0  0  0  0
    1.6941    1.2885   -1.1418 H   0  0  0  0  0  0  0  0  0  0  0  0
   -0.0704   -0.0892   -0.0058 H   0  0  0  0  0  0  0  0  0  0  0  0
    1.2458   -1.1341   -0.5660 H   0  0  0  0  0  0  0  0  0  0  0  0
    1.1302   -0.7003    1.1440 H   0  0  0  0  0  0  0  0  0  0  0  0
  1  2  1  0  0  0  0
  1 27  1  0  0  0  0
  1 28  1  0  0  0  0
  1 29  1  0  0  0  0
  2  3  1  0  0  0  0
  2 25  1  0  0  0  0
  2 26  1  0  0  0  0
  3  4  1  0  0  0  0
  3 23  1  0  0  0  0
  3 24  1  0  0  0  0
  4  5  1  0  0  0  0
  4 21  1  0  0  0  0
  4 22  1  0  0  0  0
  5  6  1  0  0  0  0
  5 19  1  0  0  0  0
  5 20  1  0  0  0  0
  6  7  1  0  0  0  0
  6 17  1  0  0  0  0
  6 18  1  0  0  0  0
  7  8  1  0  0  0  0
  7 15  1  0  0  0  0
  7 16  1  0  0  0  0
  8  9  1  0  0  0  0
  8 13  1  0  0  0  0
  8 14  1  0  0  0  0
  9 10  2  0  0  0  0
  9 11  2  0  0  0  0
  9 12  1  0  0  0  0
M  CHG  1  12  -1
M  END
$$$$
