25
0 1 C6H12NO5P
O                    -0.417790397965     3.641693929766    -1.529924808178
C                    -1.032027167179     2.522912937368    -1.047974144677
O                    -2.238226446160     2.447417595436    -0.928483247579
C                    -0.012846559971     1.412376134321    -0.786173864025
C                    -0.569583933619     0.389014683184     0.168185429475
C                     0.172153951632    -0.440508113205     0.916769920604
C                     1.678577587126    -0.451545315750     0.965068310922
H                     2.029746024213    -0.158280655578     1.962959690310
H                     2.127490193335     0.211992375299     0.225493781485
H                     2.053414633859    -1.463740974280     0.780023221430
C                    -0.515800319882    -1.508016749945     1.746273650739
P                    -0.929815059616    -2.939712482757     0.708054263512
O                    -1.989538742864    -2.758512326085    -0.317075200437
O                    -1.214081479370    -4.066762181286     1.839394530865
H                    -1.697686832383    -4.830238428221     1.477287154150
O                     0.489665892604    -3.429114178347     0.064503156493
H                     0.498715505545    -3.254943865747    -0.892699988254
H                     0.113645801424    -1.854691207781     2.571443789942
H                    -1.462115394807    -1.154160801725     2.164840325213
H                    -1.653207932045     0.297854658629     0.179187431151
N                     0.372546566677     0.760107234932    -2.060611205794
H                    -0.434977930890     0.264124061829    -2.438007803318
H                     0.646225394013     1.465833584393    -2.744907370502
H                     0.886286974307     1.885011649049    -0.382188032578
H                    -1.128741054730     4.278959570420    -1.737477746520
