
  -OEChem-12122420533D

 25 24  0     1  0  0  0  0  0999 V2000
    0.0066    3.4237   -0.5478 O   0  0  0  0  0  0  0  0  0  0  0  0
   -0.7560    2.5246   -1.2118 C   0  0  0  0  0  0  0  0  0  0  0  0
   -1.7745    2.8225   -1.8061 O   0  0  0  0  0  0  0  0  0  0  0  0
   -0.2123    1.1077   -1.0856 C   0  0  1  0  0  0  0  0  0  0  0  0
   -0.6723    0.4619    0.2010 C   0  0  0  0  0  0  0  0  0  0  0  0
    0.0800   -0.3213    0.9913 C   0  0  0  0  0  0  0  0  0  0  0  0
    1.5848   -0.3627    1.0163 C   0  0  0  0  0  0  0  0  0  0  0  0
    1.9348   -0.2686    2.0513 H   0  0  0  0  0  0  0  0  0  0  0  0
    2.0412    0.4454    0.4415 H   0  0  0  0  0  0  0  0  0  0  0  0
    1.9488   -1.3250    0.6398 H   0  0  0  0  0  0  0  0  0  0  0  0
   -0.6292   -1.4340    1.7314 C   0  0  0  0  0  0  0  0  0  0  0  0
   -0.7440   -2.8029    0.5092 P   0  0  0  0  0  0  0  0  0  0  0  0
    0.5649   -3.4066    0.1402 O   0  0  0  0  0  0  0  0  0  0  0  0
   -1.6223   -2.2285   -0.7142 O   0  0  0  0  0  0  0  0  0  0  0  0
   -1.1702   -1.5455   -1.2795 H   0  0  0  0  0  0  0  0  0  0  0  0
   -1.7978   -3.8168    1.2123 O   0  0  0  0  0  0  0  0  0  0  0  0
   -1.6434   -4.7332    0.9238 H   0  0  0  0  0  0  0  0  0  0  0  0
   -0.0808   -1.8015    2.6033 H   0  0  0  0  0  0  0  0  0  0  0  0
   -1.6438   -1.1596    2.0322 H   0  0  0  0  0  0  0  0  0  0  0  0
   -1.7568    0.3850    0.2768 H   0  0  0  0  0  0  0  0  0  0  0  0
   -0.7184    0.2175   -2.1594 N   0  0  0  0  0  0  0  0  0  0  0  0
   -1.6376    0.5591   -2.4482 H   0  0  0  0  0  0  0  0  0  0  0  0
   -0.1195    0.2808   -2.9818 H   0  0  0  0  0  0  0  0  0  0  0  0
    0.8762    1.1451   -1.1292 H   0  0  0  0  0  0  0  0  0  0  0  0
   -0.4388    4.2895   -0.6303 H   0  0  0  0  0  0  0  0  0  0  0  0
  1  2  1  0  0  0  0
  1 25  1  0  0  0  0
  2  3  2  0  0  0  0
  2  4  1  0  0  0  0
  4  5  1  0  0  0  0
  4 21  1  0  0  0  0
  4 24  1  0  0  0  0
  5  6  2  0  0  0  0
  5 20  1  0  0  0  0
  6  7  1  0  0  0  0
  6 11  1  0  0  0  0
  7  8  1  0  0  0  0
  7  9  1  0  0  0  0
  7 10  1  0  0  0  0
 11 12  1  0  0  0  0
 11 18  1  0  0  0  0
 11 19  1  0  0  0  0
 12 13  2  0  0  0  0
 12 14  1  0  0  0  0
 12 16  1  0  0  0  0
 14 15  1  0  0  0  0
 16 17  1  0  0  0  0
 21 22  1  0  0  0  0
 21 23  1  0  0  0  0
M  END
$$$$
