
  -OEChem-12102412493D

 25 24  0     1  0  0  0  0  0999 V2000
    0.3171    2.5496    0.6978 O   0  0  0  0  0  0  0  0  0  0  0  0
   -0.6642    2.1203   -0.1086 C   0  0  0  0  0  0  0  0  0  0  0  0
   -1.8555    2.3314    0.1038 O   0  0  0  0  0  0  0  0  0  0  0  0
   -0.1683    1.1630   -1.2110 C   0  0  1  0  0  0  0  0  0  0  0  0
   -0.4584   -0.1299   -0.4707 C   0  0  0  0  0  0  0  0  0  0  0  0
    0.2458   -0.6132    0.5696 C   0  0  0  0  0  0  0  0  0  0  0  0
    1.6495   -0.2151    0.9361 C   0  0  0  0  0  0  0  0  0  0  0  0
    1.6507    0.3644    1.8653 H   0  0  0  0  0  0  0  0  0  0  0  0
    2.1351    0.3811    0.1630 H   0  0  0  0  0  0  0  0  0  0  0  0
    2.2515   -1.1163    1.1066 H   0  0  0  0  0  0  0  0  0  0  0  0
   -0.4892   -1.4377    1.6083 C   0  0  0  0  0  0  0  0  0  0  0  0
   -1.4013   -0.2036    2.6117 P   0  0  0  0  0  0  0  0  0  0  0  0
   -0.6187    1.0051    3.0068 O   0  0  0  0  0  0  0  0  0  0  0  0
   -1.9800   -1.1184    3.8132 O   0  0  0  0  0  0  0  0  0  0  0  0
   -2.4607   -0.5999    4.4829 H   0  0  0  0  0  0  0  0  0  0  0  0
   -2.7337    0.1613    1.7726 O   0  0  0  0  0  0  0  0  0  0  0  0
   -2.6335    1.0048    1.2734 H   0  0  0  0  0  0  0  0  0  0  0  0
   -1.2234   -2.1237    1.1778 H   0  0  0  0  0  0  0  0  0  0  0  0
    0.1818   -2.0003    2.2631 H   0  0  0  0  0  0  0  0  0  0  0  0
   -1.4783   -0.4857   -0.6130 H   0  0  0  0  0  0  0  0  0  0  0  0
   -0.8854    1.2399   -2.4756 N   0  0  0  0  0  0  0  0  0  0  0  0
   -1.8882    1.2315   -2.2879 H   0  0  0  0  0  0  0  0  0  0  0  0
   -0.6891    2.1319   -2.9274 H   0  0  0  0  0  0  0  0  0  0  0  0
    0.8982    1.3191   -1.3786 H   0  0  0  0  0  0  0  0  0  0  0  0
   -0.0757    2.7235    1.5817 H   0  0  0  0  0  0  0  0  0  0  0  0
  1  2  1  0  0  0  0
  1 25  1  0  0  0  0
  2  3  2  0  0  0  0
  2  4  1  0  0  0  0
  4  5  1  0  0  0  0
  4 21  1  0  0  0  0
  4 24  1  0  0  0  0
  5  6  2  0  0  0  0
  5 20  1  0  0  0  0
  6  7  1  0  0  0  0
  6 11  1  0  0  0  0
  7  8  1  0  0  0  0
  7  9  1  0  0  0  0
  7 10  1  0  0  0  0
 11 12  1  0  0  0  0
 11 18  1  0  0  0  0
 11 19  1  0  0  0  0
 12 13  2  0  0  0  0
 12 14  1  0  0  0  0
 12 16  1  0  0  0  0
 14 15  1  0  0  0  0
 16 17  1  0  0  0  0
 21 22  1  0  0  0  0
 21 23  1  0  0  0  0
M  END
$$$$
