17
0 1 Br2C4H8O2S
C                     1.037231619754     0.792457906903    -1.437525223049
Br                    2.709366125083     1.795230247546    -1.115519514495
C                     0.297835116114     0.622359443602    -0.122329520075
S                    -1.255572840972    -0.294109830262    -0.437373172157
O                    -0.891077530926    -1.658309644865    -0.850064048096
O                    -2.107964951289     0.550517430005    -1.292919395612
C                    -2.041354447098    -0.407450523982     1.210520688254
C                    -2.625041932358     0.919870279922     1.654017578469
Br                   -3.539358047653     0.687456633265     3.392432376118
H                    -3.372425254721     1.286559669810     0.954356070811
H                    -1.868010989764     1.683718750107     1.824633333661
H                    -2.816240797174    -1.166243589645     1.073159661964
H                    -1.290631693738    -0.797727051392     1.901474796582
H                     0.029141799575     1.588785469785     0.309230545171
H                     0.877888609175     0.036793342201     0.594180286166
H                     0.464056911838     1.374942307775    -2.155803253772
H                     1.330034048924    -0.162213617027    -1.869293096186
