
  -OEChem-12102412483D

 39 40  0     1  0  0  0  0  0999 V2000
   -1.0660   -5.6666   -8.3615 C   0  0  0  0  0  0  0  0  0  0  0  0
   -1.4807   -5.0640   -7.1659 C   0  0  0  0  0  0  0  0  0  0  0  0
   -0.5464   -4.5518   -6.2640 C   0  0  0  0  0  0  0  0  0  0  0  0
    0.8319   -4.6369   -6.5355 C   0  0  0  0  0  0  0  0  0  0  0  0
    1.2361   -5.2329   -7.7402 C   0  0  0  0  0  0  0  0  0  0  0  0
    0.3009   -5.7444   -8.6469 C   0  0  0  0  0  0  0  0  0  0  0  0
    1.8502   -4.0495   -5.6037 C   0  0  1  0  0  0  0  0  0  0  0  0
    2.8612   -4.2464   -5.9626 H   0  0  0  0  0  0  0  0  0  0  0  0
    1.7081   -2.4193   -5.5710 C   0  0  0  0  0  0  0  0  0  0  0  0
    2.4736   -1.8316   -6.3604 O   0  0  0  0  0  0  0  0  0  0  0  0
    0.8511   -1.9916   -4.7593 O   0  5  0  0  0  0  0  0  0  0  0  0
    1.7417   -4.5047   -4.1787 C   0  0  0  0  0  0  0  0  0  0  0  0
    0.7844   -5.0140   -3.6220 O   0  0  0  0  0  0  0  0  0  0  0  0
    2.9019   -4.2013   -3.5098 O   0  0  0  0  0  0  0  0  0  0  0  0
    2.7753   -4.0729   -2.0800 C   0  0  0  0  0  0  0  0  0  0  0  0
    2.1432   -2.7288   -1.7211 C   0  0  0  0  0  0  0  0  0  0  0  0
    1.8677   -2.6305   -0.2135 C   0  0  0  0  0  0  0  0  0  0  0  0
    1.1993   -1.2928    0.1415 C   0  0  0  0  0  0  0  0  0  0  0  0
    2.0243   -0.0969   -0.3591 C   0  0  0  0  0  0  0  0  0  0  0  0
    2.3257   -0.2114   -1.8611 C   0  0  0  0  0  0  0  0  0  0  0  0
    2.9990   -1.5465   -2.1991 C   0  0  0  0  0  0  0  0  0  0  0  0
   -1.7985   -6.0630   -9.0624 H   0  0  0  0  0  0  0  0  0  0  0  0
   -2.5429   -4.9869   -6.9397 H   0  0  0  0  0  0  0  0  0  0  0  0
   -0.8653   -4.0675   -5.3484 H   0  0  0  0  0  0  0  0  0  0  0  0
    2.2980   -5.2870   -7.9714 H   0  0  0  0  0  0  0  0  0  0  0  0
    0.6403   -6.2003   -9.5754 H   0  0  0  0  0  0  0  0  0  0  0  0
    2.1821   -4.9043   -1.6871 H   0  0  0  0  0  0  0  0  0  0  0  0
    3.7989   -4.1461   -1.6960 H   0  0  0  0  0  0  0  0  0  0  0  0
    1.1876   -2.6736   -2.2554 H   0  0  0  0  0  0  0  0  0  0  0  0
    1.2303   -3.4646    0.1090 H   0  0  0  0  0  0  0  0  0  0  0  0
    2.8146   -2.7213    0.3421 H   0  0  0  0  0  0  0  0  0  0  0  0
    0.2057   -1.2618   -0.3257 H   0  0  0  0  0  0  0  0  0  0  0  0
    1.0423   -1.2217    1.2265 H   0  0  0  0  0  0  0  0  0  0  0  0
    1.4955    0.8410   -0.1422 H   0  0  0  0  0  0  0  0  0  0  0  0
    2.9725   -0.0591    0.1987 H   0  0  0  0  0  0  0  0  0  0  0  0
    1.3975   -0.1430   -2.4410 H   0  0  0  0  0  0  0  0  0  0  0  0
    2.9605    0.6235   -2.1838 H   0  0  0  0  0  0  0  0  0  0  0  0
    3.9889   -1.5966   -1.7155 H   0  0  0  0  0  0  0  0  0  0  0  0
    3.1515   -1.6181   -3.2778 H   0  0  0  0  0  0  0  0  0  0  0  0
  1  2  1  0  0  0  0
  1  6  2  0  0  0  0
  1 22  1  0  0  0  0
  2  3  2  0  0  0  0
  2 23  1  0  0  0  0
  3  4  1  0  0  0  0
  3 24  1  0  0  0  0
  4  5  2  0  0  0  0
  4  7  1  0  0  0  0
  5  6  1  0  0  0  0
  5 25  1  0  0  0  0
  6 26  1  0  0  0  0
  7  8  1  0  0  0  0
  7  9  1  0  0  0  0
  7 12  1  0  0  0  0
  9 10  2  0  0  0  0
  9 11  1  0  0  0  0
 12 13  2  0  0  0  0
 12 14  1  0  0  0  0
 14 15  1  0  0  0  0
 15 16  1  0  0  0  0
 15 27  1  0  0  0  0
 15 28  1  0  0  0  0
 16 17  1  0  0  0  0
 16 21  1  0  0  0  0
 16 29  1  0  0  0  0
 17 18  1  0  0  0  0
 17 30  1  0  0  0  0
 17 31  1  0  0  0  0
 18 19  1  0  0  0  0
 18 32  1  0  0  0  0
 18 33  1  0  0  0  0
 19 20  1  0  0  0  0
 19 34  1  0  0  0  0
 19 35  1  0  0  0  0
 20 21  1  0  0  0  0
 20 36  1  0  0  0  0
 20 37  1  0  0  0  0
 21 38  1  0  0  0  0
 21 39  1  0  0  0  0
M  CHG  1  11  -1
M  END
$$$$
