39
-1 1 C16H19O4
C                    -1.065975165852    -5.666583340168    -8.361547881004
C                    -1.480732367672    -5.063975049655    -7.165893997851
C                    -0.546413882990    -4.551768059997    -6.264013430588
C                     0.831859648244    -4.636895437892    -6.535527404537
C                     1.236091557677    -5.232852489460    -7.740231657355
C                     0.300908090511    -5.744354805578    -8.646868199508
C                     1.850203986121    -4.049480248439    -5.603670302983
H                     2.861178420069    -4.246356332749    -5.962561155400
C                     1.708132134342    -2.419329842779    -5.571036044945
O                     2.473550043590    -1.831646778531    -6.360384411306
O                     0.851142114369    -1.991604782988    -4.759299508452
C                     1.741747910271    -4.504723285200    -4.178685997733
O                     0.784435580389    -5.014031749021    -3.621987243438
O                     2.901906305958    -4.201264661077    -3.509806786628
C                     2.775278602199    -4.072887656213    -2.079979239874
C                     2.143228770264    -2.728802073766    -1.721138108948
C                     1.867691880031    -2.630490848930    -0.213517220598
C                     1.199257447664    -1.292837092681     0.141529884356
C                     2.024267187963    -0.096896215559    -0.359104147875
C                     2.325695951806    -0.211383297621    -1.861101702845
C                     2.998961433434    -1.546454436244    -2.199127208972
H                    -1.798454778296    -6.062960402383    -9.062411060148
H                    -2.542901574606    -4.986934330347    -6.939684615316
H                    -0.865347664918    -4.067485465989    -5.348354718624
H                     2.298000367089    -5.287002658959    -7.971446479500
H                     0.640272954742    -6.200307130305    -9.575438888329
H                     2.182129232616    -4.904339848588    -1.687111993135
H                     3.798890232446    -4.146081262491    -1.696017373535
H                     1.187583946566    -2.673604128099    -2.255425441064
H                     1.230342264246    -3.464566611955     0.109004705616
H                     2.814644512951    -2.721319058207     0.342092910338
H                     0.205741067323    -1.261792879866    -0.325697481613
H                     1.042347382229    -1.221726798872     1.226538496121
H                     1.495493384956     0.841047582816    -0.142227472214
H                     2.972512547891    -0.059103834410     0.198711032748
H                     1.397474001350    -0.142969548000    -2.441018885148
H                     2.960471930103     0.623508626000    -2.183794188166
H                     3.988921404245    -1.596595961369    -1.715455094962
H                     3.151473962163    -1.618099167285    -3.277805316101
