39
-1 1 C16H19O4
C                     6.678977233774    -3.329281796576    -3.108005668587
C                     6.609575303921    -2.281963196627    -2.178751891363
C                     6.071151912143    -2.489390645885    -0.907586298826
C                     5.579414957522    -3.755208093067    -0.537079032949
C                     5.663483303649    -4.800209219631    -1.471065310761
C                     6.206713995214    -4.594502982752    -2.744207274344
C                     5.029939276358    -4.013797950834     0.834481287397
H                     4.680017448485    -5.042135265866     0.921468834315
C                     6.238283368784    -3.868988220835     1.952075859197
O                     6.703621053517    -4.969776283177     2.307475618428
O                     6.516384635904    -2.689498362504     2.255452672523
C                     3.920725522173    -3.095974194982     1.235057069148
O                     3.685813275356    -1.972825156924     0.820152173969
O                     3.156538616703    -3.689662711474     2.213555040409
C                     2.130693398243    -2.892030689725     2.821809609426
C                     0.738768830675    -3.354700442882     2.372135268498
C                    -0.362635056355    -2.627561551438     3.169722585355
C                    -0.529239828209    -1.156145845986     2.754515402987
C                    -0.772883461960    -1.028948557045     1.243188480252
C                     0.336451653726    -1.720299236066     0.436831220609
C                     0.505361918394    -3.187164393222     0.858201555322
H                     7.101449505943    -3.162313315932    -4.097249472129
H                     6.986995216993    -1.296447562954    -2.446663565536
H                     6.037919091178    -1.689097333735    -0.177816735173
H                     5.305008442729    -5.788621468812    -1.190337969982
H                     6.261838221204    -5.422223920155    -3.449420263701
H                     2.237052540603    -3.043519048882     3.901560348177
H                     2.312635016855    -1.841243978758     2.594159335556
H                     0.681284188569    -4.425893550037     2.606344799730
H                    -1.315823016098    -3.148893244283     3.002467655796
H                    -0.155571516972    -2.696269571214     4.245948945674
H                    -1.359349212245    -0.705007176464     3.313698220943
H                     0.370585065511    -0.589295070327     3.023871085349
H                    -1.742098236168    -1.489976744285     0.999127098136
H                    -0.848193179110     0.028846751530     0.960473539286
H                     0.108678922958    -1.671131010709    -0.635281495994
H                     1.288280734019    -1.197106104173     0.574283455883
H                     1.331068299323    -3.643576567653     0.304416090909
H                    -0.403033968647    -3.745875571406     0.588283653924
