
  -OEChem-12102412483D

 39 40  0     1  0  0  0  0  0999 V2000
    6.6790   -3.3293   -3.1080 C   0  0  0  0  0  0  0  0  0  0  0  0
    6.6096   -2.2820   -2.1788 C   0  0  0  0  0  0  0  0  0  0  0  0
    6.0712   -2.4894   -0.9076 C   0  0  0  0  0  0  0  0  0  0  0  0
    5.5794   -3.7552   -0.5371 C   0  0  0  0  0  0  0  0  0  0  0  0
    5.6635   -4.8002   -1.4711 C   0  0  0  0  0  0  0  0  0  0  0  0
    6.2067   -4.5945   -2.7442 C   0  0  0  0  0  0  0  0  0  0  0  0
    5.0299   -4.0138    0.8345 C   0  0  1  0  0  0  0  0  0  0  0  0
    4.6800   -5.0421    0.9215 H   0  0  0  0  0  0  0  0  0  0  0  0
    6.2383   -3.8690    1.9521 C   0  0  0  0  0  0  0  0  0  0  0  0
    6.7036   -4.9698    2.3075 O   0  0  0  0  0  0  0  0  0  0  0  0
    6.5164   -2.6895    2.2555 O   0  5  0  0  0  0  0  0  0  0  0  0
    3.9207   -3.0960    1.2351 C   0  0  0  0  0  0  0  0  0  0  0  0
    3.6858   -1.9728    0.8202 O   0  0  0  0  0  0  0  0  0  0  0  0
    3.1565   -3.6897    2.2136 O   0  0  0  0  0  0  0  0  0  0  0  0
    2.1307   -2.8920    2.8218 C   0  0  0  0  0  0  0  0  0  0  0  0
    0.7388   -3.3547    2.3721 C   0  0  0  0  0  0  0  0  0  0  0  0
   -0.3626   -2.6276    3.1697 C   0  0  0  0  0  0  0  0  0  0  0  0
   -0.5292   -1.1561    2.7545 C   0  0  0  0  0  0  0  0  0  0  0  0
   -0.7729   -1.0289    1.2432 C   0  0  0  0  0  0  0  0  0  0  0  0
    0.3365   -1.7203    0.4368 C   0  0  0  0  0  0  0  0  0  0  0  0
    0.5054   -3.1872    0.8582 C   0  0  0  0  0  0  0  0  0  0  0  0
    7.1014   -3.1623   -4.0972 H   0  0  0  0  0  0  0  0  0  0  0  0
    6.9870   -1.2964   -2.4467 H   0  0  0  0  0  0  0  0  0  0  0  0
    6.0379   -1.6891   -0.1778 H   0  0  0  0  0  0  0  0  0  0  0  0
    5.3050   -5.7886   -1.1903 H   0  0  0  0  0  0  0  0  0  0  0  0
    6.2618   -5.4222   -3.4494 H   0  0  0  0  0  0  0  0  0  0  0  0
    2.2371   -3.0435    3.9016 H   0  0  0  0  0  0  0  0  0  0  0  0
    2.3126   -1.8412    2.5942 H   0  0  0  0  0  0  0  0  0  0  0  0
    0.6813   -4.4259    2.6063 H   0  0  0  0  0  0  0  0  0  0  0  0
   -1.3158   -3.1489    3.0025 H   0  0  0  0  0  0  0  0  0  0  0  0
   -0.1556   -2.6963    4.2459 H   0  0  0  0  0  0  0  0  0  0  0  0
   -1.3593   -0.7050    3.3137 H   0  0  0  0  0  0  0  0  0  0  0  0
    0.3706   -0.5893    3.0239 H   0  0  0  0  0  0  0  0  0  0  0  0
   -1.7421   -1.4900    0.9991 H   0  0  0  0  0  0  0  0  0  0  0  0
   -0.8482    0.0288    0.9605 H   0  0  0  0  0  0  0  0  0  0  0  0
    0.1087   -1.6711   -0.6353 H   0  0  0  0  0  0  0  0  0  0  0  0
    1.2883   -1.1971    0.5743 H   0  0  0  0  0  0  0  0  0  0  0  0
    1.3311   -3.6436    0.3044 H   0  0  0  0  0  0  0  0  0  0  0  0
   -0.4030   -3.7459    0.5883 H   0  0  0  0  0  0  0  0  0  0  0  0
  1  2  1  0  0  0  0
  1  6  2  0  0  0  0
  1 22  1  0  0  0  0
  2  3  2  0  0  0  0
  2 23  1  0  0  0  0
  3  4  1  0  0  0  0
  3 24  1  0  0  0  0
  4  5  2  0  0  0  0
  4  7  1  0  0  0  0
  5  6  1  0  0  0  0
  5 25  1  0  0  0  0
  6 26  1  0  0  0  0
  7  8  1  0  0  0  0
  7  9  1  0  0  0  0
  7 12  1  0  0  0  0
  9 10  2  0  0  0  0
  9 11  1  0  0  0  0
 12 13  2  0  0  0  0
 12 14  1  0  0  0  0
 14 15  1  0  0  0  0
 15 16  1  0  0  0  0
 15 27  1  0  0  0  0
 15 28  1  0  0  0  0
 16 17  1  0  0  0  0
 16 21  1  0  0  0  0
 16 29  1  0  0  0  0
 17 18  1  0  0  0  0
 17 30  1  0  0  0  0
 17 31  1  0  0  0  0
 18 19  1  0  0  0  0
 18 32  1  0  0  0  0
 18 33  1  0  0  0  0
 19 20  1  0  0  0  0
 19 34  1  0  0  0  0
 19 35  1  0  0  0  0
 20 21  1  0  0  0  0
 20 36  1  0  0  0  0
 20 37  1  0  0  0  0
 21 38  1  0  0  0  0
 21 39  1  0  0  0  0
M  CHG  1  11  -1
M  END
$$$$
