27   
torsion grid (-165,)
C       -0.0119601415   -7.7537417578    0.9742277897
C       -1.0760681016   -6.9924043366    1.4677493108
C        1.2554089829   -7.1787898805    0.8119509760
C       -0.8811351423   -5.6477089670    1.7994992468
C        1.4621742255   -5.8381148427    1.1404108442
C        0.3857850105   -5.0905163857    1.6254987912
C        0.6377747410   -0.5322695661   -0.4223284045
C        0.0411797243   -1.5940939315   -1.3575864537
C        1.5348798663   -1.3482055218    0.5190911773
C       -0.2388365591   -2.7572682998   -0.4022187803
N        0.9267537610   -2.7203888414    0.5217770582
O       -0.5983152410   -2.8639224574    2.6440700693
O        1.9118197622   -3.2208959697    2.7897655881
S        0.6525449649   -3.3695473527    2.0537675067
H       -0.1677000948   -8.7984862856    0.7183267389
H       -2.0559023932   -7.4434544911    1.5981903690
H        2.0809992599   -7.7756053945    0.4341206575
H       -1.6868328975   -5.0345626036    2.1904953072
H        2.4372787588   -5.3744712946    1.0283621132
H        1.1946323369    0.2467832810   -0.9498634134
H       -0.1623172366   -0.0511513946    0.1498500765
H       -0.8648542197   -1.2608812645   -1.8706136929
H        0.7732428631   -1.8951182156   -2.1147093129
H        2.5579081117   -1.4327648379    0.1418535897
H        1.5843158302   -0.9281134615    1.5254967003
H       -1.1779571981   -2.5895622580    0.1396541203
H       -0.2863586723   -3.7291246090   -0.8997914145
27   
torsion grid (-150,)
C        0.1048898229   -7.7705006663    0.9675809198
C       -1.0130392105   -7.0633285472    1.4197044679
C        1.3452062729   -7.1298082358    0.8441951653
C       -0.8999221890   -5.7082144484    1.7492202359
C        1.4693941787   -5.7784772221    1.1690283063
C        0.3405636984   -5.0851713850    1.6144852974
C        0.7795538459   -0.5227393506   -0.5099816588
C       -0.0216468516   -1.5057572431   -1.3778121727
C        1.5787593601   -1.4376911872    0.4298121370
C       -0.4369703793   -2.5823775947   -0.3700543691
N        0.7496169623   -2.6790139194    0.5143984838
O       -0.7810018241   -2.9182469306    2.6089280241
O        1.7503100600   -3.1378794438    2.7754821730
S        0.5028597105   -3.3475355969    2.0334348225
H        0.0131685464   -8.8233927593    0.7141229298
H       -1.9718813308   -7.5642790210    1.5208956180
H        2.2136090677   -7.6842964894    0.4991866463
H       -1.7491262227   -5.1379457015    2.1119670541
H        2.4229668403   -5.2660740007    1.0873917282
H        1.4281533606    0.1376371007   -1.0917956905
H        0.0934402069    0.1008760171    0.0728248345
H       -0.8862253248   -1.0472047742   -1.8649060507
H        0.6177648938   -1.9413098936   -2.1531540000
H        2.5548104483   -1.7018492985    0.0112129004
H        1.7446636423   -0.9980668034    1.4143803525
H       -1.3224603199   -2.2683905946    0.1956711980
H       -0.6396623052   -3.5532872492   -0.8308889526
27   
torsion grid (-135,)
C        0.2087432615   -7.7866369642    0.9368166810
C       -0.9643375977   -7.0763503565    1.2096448100
C        1.4545669320   -7.1513614724    1.0208977955
C       -0.8997207234   -5.7246923687    1.5640086728
C        1.5310333008   -5.8016966274    1.3687830937
C        0.3486691583   -5.1046547243    1.6312636089
C        0.8550142118   -0.5669377209   -0.5617399271
C       -0.1702749210   -1.4273753802   -1.3176504241
C        1.6047607812   -1.5828470272    0.3125265083
C       -0.6355010285   -2.4245666143   -0.2498730812
N        0.5968223656   -2.6567708769    0.5364825301
O       -0.8413319925   -2.9919892630    2.6518141952
O        1.7096348336   -3.1143471824    2.7460407694
S        0.4449289183   -3.3600980930    2.0451823337
H        0.1548448495   -8.8378603125    0.6662276075
H       -1.9288754871   -7.5738085061    1.1559224940
H        2.3654006765   -7.7090509258    0.8207843607
H       -1.7947894653   -5.1589365098    1.8023995310
H        2.4874730556   -5.2948945354    1.4522740885
H        1.5287247441   -0.0176582133   -1.2248901888
H        0.3359884116    0.1582891256    0.0739969266
H       -1.0030942564   -0.8489615342   -1.7261208389
H        0.3147140498   -1.9589995247   -2.1434017852
H        2.4682017027   -2.0082832180   -0.2103700641
H        1.9534908093   -1.1640877335    1.2569545201
H       -1.4238398212   -1.9968529084    0.3799180113
H       -0.9981833798   -3.3667912906   -0.6722855608
27   
torsion grid (-120,)
C        0.3022709605   -7.7543213446    0.8934034160
C       -0.9035070745   -7.0815498757    1.1157807762
C        1.5228842278   -7.0884198191    1.0616184528
C       -0.8967687311   -5.7372602695    1.5013230703
C        1.5420388941   -5.7451539519    1.4423427933
C        0.3283418623   -5.0847652132    1.6517683182
C        0.9405095940   -0.6393535842   -0.6270448101
C       -0.2227199231   -1.3928916334   -1.2932654448
C        1.6042054956   -1.7088687342    0.2521338384
C       -0.7549543472   -2.2887922899   -0.1660384016
N        0.4681856264   -2.5936153313    0.6049426874
O       -0.9591630622   -3.0326154178    2.6693446935
O        1.5997896354   -3.0639263216    2.7985028931
S        0.3501973300   -3.3404351129    2.0827939292
H        0.2925634048   -8.8002510288    0.5982675789
H       -1.8493127219   -7.6036321067    0.9988729357
H        2.4588034986   -7.6172362577    0.9029129404
H       -1.8197199563   -5.2029495503    1.7031706165
H        2.4781620102   -5.2166973752    1.5943137453
H        1.6391982333   -0.2038530764   -1.3464286718
H        0.5513790388    0.1671069326    0.0035930214
H       -0.9971389690   -0.7299543233   -1.6878699458
H        0.1505670447   -2.0099235937   -2.1176623141
H        2.3571293908   -2.2778629545   -0.3067775906
H        2.0750079093   -1.3035013693    1.1480665531
H       -1.4852071436   -1.7653404199    0.4602255654
H       -1.2146585347   -3.2097050459   -0.5394272941
27   
torsion grid (-105,)
C        0.3279632234   -7.6341562003    0.7406519041
C       -0.8909877459   -7.0098389909    1.0245010589
C        1.5338255511   -6.9541666713    0.9528103503
C       -0.9121128452   -5.7002820412    1.5148394753
C        1.5254121199   -5.6450832042    1.4389981733
C        0.2985066502   -5.0308853552    1.7087522088
C        0.9643270817   -0.8010453227   -0.6776587711
C       -0.2212675913   -1.5925705237   -1.2571292987
C        1.5562001196   -1.7579582537    0.3658188600
C       -0.8153720669   -2.3142865616   -0.0351523127
N        0.3518892277   -2.4540657021    0.8531788803
O       -1.0277250916   -3.0866647708    2.8648329446
O        1.5367246578   -3.0523581644    2.9675199766
S        0.2843463085   -3.3175844216    2.2545102719
H        0.3401602269   -8.6537198558    0.3644891037
H       -1.8255224105   -7.5436120288    0.8742639492
H        2.4803629198   -7.4468722038    0.7475592357
H       -1.8454043051   -5.2065320733    1.7662212225
H        2.4507255449   -5.1099215814    1.6295036221
H        1.6971586887   -0.5120670731   -1.4357010293
H        0.6063082307    0.1068280937   -0.1812467818
H       -0.9580250576   -0.9590458718   -1.7574830806
H        0.1410293986   -2.3288166603   -1.9825340856
H        2.2590232990   -2.4648658159   -0.0969261529
H        2.0644545916   -1.2511040128    1.1865650849
H       -1.5974309496   -1.7271402911    0.4571744311
H       -1.2326247150   -3.2930438995   -0.2975448049
27   
torsion grid (-90,)
C        0.3548625923   -7.4850355580    0.6034719690
C       -0.8725363903   -6.9070836781    0.9448269420
C        1.5494125526   -6.7953817371    0.8439569345
C       -0.9139426093   -5.6330318987    1.5191647250
C        1.5205804927   -5.5214862432    1.4161996846
C        0.2853607037   -4.9504095637    1.7402955379
C        1.0267362544   -0.9891127893   -0.7217802118
C       -0.2070929438   -1.7706542617   -1.2058940105
C        1.5357763769   -1.8326866930    0.4519943343
C       -0.8551574806   -2.2893615708    0.0913688527
N        0.2721696430   -2.3051445912    1.0477564089
O       -1.0636709775   -3.1000335252    3.0220048734
O        1.5019328813   -3.0263905393    3.0990254917
S        0.2450391705   -3.2732774209    2.3888844322
H        0.3821441862   -8.4775006776    0.1614397737
H       -1.7977613646   -7.4506959127    0.7737748338
H        2.5029820184   -7.2536853630    0.5959841339
H       -1.8534517431   -5.1778913491    1.8161783879
H        2.4379164837   -4.9838554703    1.6353534988
H        1.7854908359   -0.8620526121   -1.4984254941
H        0.7328751115    0.0022067551   -0.3618729989
H       -0.8976399945   -1.1616257944   -1.7946916300
H        0.1093384481   -2.6163838882   -1.8255101853
H        2.1505926846   -2.6711472348    0.0924519148
H        2.1107811899   -1.2689545878    1.1867787950
H       -1.6416597871   -1.6266430209    0.4638567561
H       -1.2843622127   -3.2883642234   -0.0418908283
27   
torsion grid (-75,)
C        0.4430149574   -7.3800779330    0.5523933727
C       -0.8074312005   -6.8215633512    0.8393266689
C        1.6150877331   -6.6879876541    0.8787426915
C       -0.8928358685   -5.5633869806    1.4420093176
C        1.5420083091   -5.4295700203    1.4813840819
C        0.2854738148   -4.8752021434    1.7475654910
C        1.0591770414   -1.1407126672   -0.7912204046
C       -0.2860274193   -1.7843901566   -1.1700310658
C        1.5100984756   -1.9752247396    0.4103476418
C       -0.9224496538   -2.1585947277    0.1826002100
N        0.2323498374   -2.2009065104    1.1153337092
O       -1.1433760948   -3.0690715896    3.0263491455
O        1.4180747048   -2.9701586969    3.1849686949
S        0.1863598246   -3.2154373170    2.4326044201
H        0.5046355957   -8.3605166328    0.0875917374
H       -1.7162465089   -7.3691232276    0.6047317325
H        2.5855800917   -7.1321909500    0.6746987180
H       -1.8523833975   -5.1273535284    1.7011766156
H        2.4400376409   -4.8931099665    1.7708805986
H        1.7884319265   -1.1614093696   -1.6053360687
H        0.9144728099   -0.1000595865   -0.4839075426
H       -0.9283140191   -1.1225812164   -1.7564161561
H       -0.1087722138   -2.6897900633   -1.7598128946
H        1.9606939927   -2.9211729446    0.0739622537
H        2.2131712006   -1.4654684373    1.0696053116
H       -1.6368500485   -1.4109450006    0.5361748953
H       -1.4390016492   -3.1223403325    0.1307239918
27   
torsion grid (-60,)
C        0.5706847270   -7.3515773543    0.5253223988
C       -0.7001641139   -6.7934539849    0.7043797115
C        1.7084982585   -6.6680113858    0.9686308719
C       -0.8379165957   -5.5445984282    1.3158623354
C        1.5833158596   -5.4182887578    1.5813438889
C        0.3088808839   -4.8649648643    1.7392602751
C        1.0617827369   -1.2900863875   -0.8488532493
C       -0.3856391736   -1.7386105054   -1.1123667162
C        1.4697911620   -2.1619057933    0.3398323850
C       -0.9649998328   -1.9946691414    0.2919272494
N        0.2376849737   -2.1616025771    1.1584133873
O       -1.2154398030   -3.0937926572    2.9838972458
O        1.3341039189   -2.9875643334    3.2654401170
S        0.1413377109   -3.2204784704    2.4493529485
H        0.6731634323   -8.3249771352    0.0529959773
H       -1.5844531381   -7.3349815482    0.3795323624
H        2.6930799339   -7.1111647487    0.8463835717
H       -1.8173673283   -5.1121939754    1.4941169061
H        2.4513592192   -4.8855530252    1.9563600750
H        1.7196529486   -1.4331159918   -1.7101489620
H        1.0926398567   -0.2342146286   -0.5617461885
H       -0.9688697134   -1.0002086112   -1.6682299379
H       -0.3835440704   -2.6687616157   -1.6901565387
H        1.7313598004   -3.1740417433   -0.0016994058
H        2.3004150602   -1.7604337022    0.9224323601
H       -1.5487958860   -1.1512873345    0.6679225929
H       -1.6076940283   -2.8791436285    0.3108786264
27   
torsion grid (-45,)
C        0.8236802039   -7.3235274214    0.5376448699
C       -0.4481476656   -6.7385459666    0.5384804797
C        1.9053734525   -6.6601739708    1.1272409900
C       -0.6407288219   -5.4840554969    1.1221083744
C        1.7252816740   -5.4039725261    1.7130718911
C        0.4527758862   -4.8281639112    1.6963263361
C        1.0183392824   -1.4042200433   -1.0262688524
C       -0.5011429905   -1.6274196381   -1.0927321871
C        1.4343434324   -2.3104467700    0.1332247950
C       -0.9247686403   -1.7368775877    0.3819265624
N        0.3298902174   -2.1160823478    1.1014078611
O       -1.1584191413   -3.0812940568    2.8936763988
O        1.3747851146   -2.9375426605    3.2498806994
S        0.2140296714   -3.1842901173    2.3924104387
H        0.9690547397   -8.3013908314    0.0862962873
H       -1.2905475658   -7.2631443774    0.0959196983
H        2.8886494438   -7.1224737277    1.1376399518
H       -1.6261592389   -5.0297901122    1.1585474811
H        2.5461667613   -4.8769608582    2.1887368562
H        1.5341692779   -1.6638867758   -1.9545146664
H        1.2448049318   -0.3606936114   -0.7849532149
H       -1.0307804934   -0.8254633967   -1.6132936374
H       -0.7133622325   -2.5660962657   -1.6157734196
H        1.5005711167   -3.3537199186   -0.2044601706
H        2.3845745776   -2.0302178108    0.5929288495
H       -1.2746027769   -0.7822848405    0.7836125648
H       -1.7192489101   -2.4693183196    0.5387734024
27   
torsion grid (-30,)
C        0.9519656139   -7.3747896618    0.6068704867
C       -0.3172434900   -6.8004824129    0.4673067623
C        1.9601523632   -6.6974439613    1.3015246830
C       -0.5794621108   -5.5429885698    1.0161745952
C        1.7085909495   -5.4385808577    1.8545937576
C        0.4412683185   -4.8747052857    1.6982702021
C        0.9530370055   -1.4810291102   -1.0740535100
C       -0.5813448181   -1.4119965571   -1.0147011964
C        1.2764368440   -2.5185184671    0.0017129071
C       -0.9014393793   -1.5296564359    0.4855233207
N        0.3135775574   -2.1728277411    1.0723654241
O       -1.2978098661   -3.1545950003    2.7663014546
O        1.1867429934   -2.9737694047    3.3253837784
S        0.1112196095   -3.2361050597    2.3667491211
H        1.1522193263   -8.3544185204    0.1810871389
H       -1.1031639669   -7.3345358929   -0.0597467596
H        2.9405108625   -7.1509386231    1.4193036801
H       -1.5642427689   -5.0920196821    0.9375669196
H        2.4702946412   -4.8989020491    2.4080888386
H        1.3354486138   -1.7761179654   -2.0549210187
H        1.3933482801   -0.5152098384   -0.8063061835
H       -0.9866612452   -0.4948220548   -1.4496342404
H       -1.0102360469   -2.2600219777   -1.5595449781
H        1.1127416503   -3.5329103195   -0.3858133123
H        2.2999504509   -2.4515305446    0.3791895452
H       -1.0327017556   -0.5504518913    0.9545606225
H       -1.8009033467   -2.1151550300    0.6851708534
27   
torsion grid (-15,)
C        1.1511016611   -7.3937906447    0.6795175584
C       -0.1424087495   -6.8918205466    0.4930950477
C        2.1047795760   -6.6460965384    1.3794161469
C       -0.4841040802   -5.6347286832    0.9977052450
C        1.7731943111   -5.3883142905    1.8905216470
C        0.4832330570   -4.8964869253    1.6842593091
C        0.9170476666   -1.5194359064   -1.1352789084
C       -0.5670459757   -1.1788888155   -0.9283760326
C        1.1361590073   -2.6640093486   -0.1442433278
C       -0.7723385125   -1.3242177943    0.5892804716
N        0.3375568300   -2.2226891044    1.0212103250
O       -1.3914144293   -3.2362623390    2.6034451373
O        1.0160424715   -2.9700636398    3.3767124652
S        0.0496084864   -3.2714070704    2.3178745927
H        1.4129735933   -8.3728005922    0.2870213852
H       -0.8854711563   -7.4809295195   -0.0373839616
H        3.1033927853   -7.0448248671    1.5354580523
H       -1.4870455441   -5.2349819175    0.8816440563
H        2.4895106374   -4.7975297811    2.4526918115
H        1.1554792267   -1.8160547807   -2.1603664885
H        1.5483356461   -0.6668010322   -0.8651172757
H       -0.8315732217   -0.1799336643   -1.2844700283
H       -1.1913297100   -1.9026412056   -1.4635352198
H        0.7690064110   -3.6100269496   -0.5642034857
H        2.1841260584   -2.7958306381    0.1369052870
H       -0.6689447782   -0.3665777177    1.1087126512
H       -1.7454088121   -1.7461477955    0.8487585530
27   
torsion grid (0,)
C        1.2363639296   -7.4205954722    0.7451631643
C       -0.0719861291   -6.9909444615    0.4941223630
C        2.1208406668   -6.6101732240    1.4662598735
C       -0.4984611096   -5.7423056251    0.9535582174
C        1.7047782917   -5.3607686998    1.9333969994
C        0.4015824014   -4.9410677578    1.6596831858
C        0.8279055125   -1.5501487048   -1.1620991321
C       -0.5581152401   -0.9781659255   -0.8270230041
C        0.9126017505   -2.7812637402   -0.2561520324
C       -0.6826358403   -1.1827349856    0.6925500420
N        0.2644109525   -2.2948968145    0.9818898602
O       -1.6061082242   -3.3556478283    2.3872632512
O        0.6805814822   -2.9946144108    3.4173188773
S       -0.1406303473   -3.3362458071    2.2526267538
H        1.5637792999   -8.3931946779    0.3874202276
H       -0.7611518720   -7.6294260976   -0.0517074361
H        3.1304281634   -6.9541368858    1.6733809899
H       -1.5140450479   -5.3955413212    0.7887539526
H        2.3650431014   -4.7236255699    2.5136411319
H        0.9461803080   -1.8117245822   -2.2172108807
H        1.6127561341   -0.8361417945   -0.8920717956
H       -0.6707156470    0.0710423925   -1.1118978887
H       -1.3322017134   -1.5533871920   -1.3462890909
H        0.3742209166   -3.6264590799   -0.7060699669
H        1.9395431913   -3.0960056187   -0.0568296038
H       -0.3695364449   -0.2955705199    1.2521782051
H       -1.6984638883   -1.4434450523    0.9989350619
27   
torsion grid (15,)
C       -3.6707635174   -2.3728923410    2.3243280782
C       -4.4404715203   -1.2122998805    2.1861639728
C       -2.3012175721   -2.2836495220    2.6003087819
C       -3.8441888900    0.0450080209    2.3153744008
C       -1.6941032744   -1.0320017017    2.7289877034
C       -2.4749014361    0.1165908250    2.5769258253
C       -0.6319621489    1.7335641903   -1.1002590879
C        0.7090053661    1.8309637506   -0.3565876711
C       -1.5905248969    1.2811175823    0.0029832955
C        0.3272804359    2.4101129799    1.0158891670
N       -1.1153073534    2.0611421472    1.1682878562
O       -2.7598019644    2.6792782023    3.0343528884
O       -0.5248568762    1.6139328591    3.6116843169
S       -1.6905180064    1.7271158381    2.7242041752
H       -4.1402075026   -3.3481397792    2.2263244847
H       -5.5060898232   -1.2850601122    1.9868683610
H       -1.7088533714   -3.1863090306    2.7224146621
H       -4.4234300975    0.9590882458    2.2312345932
H       -0.6374997552   -0.9399181698    2.9619981307
H       -0.9344192028    2.7158968122   -1.4772578350
H       -0.6140708237    1.0314237902   -1.9382942524
H        1.1390581788    0.8306162694   -0.2362191008
H        1.4439952364    2.4521825694   -0.8748607501
H       -2.6364824081    1.5134916215   -0.2131473139
H       -1.5031279505    0.1986802602    0.1655180451
H        0.9213946503    1.9973142677    1.8335604573
H        0.4274154688    3.4996909487    1.0403298145
27   
torsion grid (30,)
C       -3.5419278639   -2.3904614013    2.3050285728
C       -4.3834617421   -1.2863417450    2.1305615285
C       -2.1866514323   -2.2028410826    2.6021159136
C       -3.8741819518    0.0104874611    2.2445699762
C       -1.6681192113   -0.9108928279    2.7181028126
C       -2.5188687977    0.1821554432    2.5310232582
C       -0.6891579091    1.7891750404   -1.1432891061
C        0.6248890188    1.5907442901   -0.3715865270
C       -1.7436410340    1.5098783268   -0.0713776911
C        0.3337572183    2.1948018857    1.0122247763
N       -1.1558401148    2.1519091880    1.1271254657
O       -2.9877424057    2.7370460245    2.7950134531
O       -0.7367029281    1.8506698403    3.6100112823
S       -1.8369471521    1.8447854671    2.6398090089
H       -3.9430321471   -3.3967528524    2.2179488529
H       -5.4377095135   -1.4334160186    1.9124451334
H       -1.5371591644   -3.0609685947    2.7519413992
H       -4.5099494273    0.8819162574    2.1256036621
H       -0.6245613704   -0.7473255385    2.9701310443
H       -0.7771514633    2.8223701699   -1.4944409280
H       -0.7929716803    1.1212999419   -2.0026721882
H        0.8401330544    0.5206219426   -0.2783515330
H        1.4831528304    2.0651046417   -0.8543694775
H       -2.7194242234    1.9488971928   -0.2944380296
H       -1.8707611339    0.4277004166    0.0642485207
H        0.8135586828    1.6500230719    1.8273160279
H        0.6536713667    3.2387923300    1.0774631919
27   
torsion grid (45,)
C       -3.3513275774   -2.4246076527    2.3204684855
C       -4.2304007951   -1.3693535404    2.0534364921
C       -2.0334074536   -2.1618992618    2.7127363745
C       -3.7951067579   -0.0459538691    2.1675372622
C       -1.5884206957   -0.8430045335    2.8313381576
C       -2.4744408807    0.2014362207    2.5491028163
C       -0.7337461265    1.8968157212   -1.1231786052
C        0.5054632483    1.3855721976   -0.3712060374
C       -1.8324713057    1.7807026328   -0.0655980404
C        0.3324389346    1.9478671272    1.0494999761
N       -1.1350149133    2.2093396125    1.1697164907
O       -3.0756087573    2.7416441143    2.6971798910
O       -0.8298360152    1.9733324341    3.6622721650
S       -1.8796148571    1.8989838606    2.6433905322
H       -3.6955438842   -3.4517201859    2.2331376966
H       -5.2569450011   -1.5749427298    1.7625397203
H       -1.3569789695   -2.9821588264    2.9370878158
H       -4.4630252391    0.7883794779    1.9789529710
H       -0.5787960749   -0.6221670431    3.1638681656
H       -0.6032940229    2.9441980068   -1.4138964175
H       -0.9656939213    1.3160057336   -2.0198474593
H        0.4962981340    0.2905178220   -0.3464623403
H        1.4465376106    1.7039497930   -0.8269670846
H       -2.6922058826    2.4284678883   -0.2501603455
H       -2.1830647195    0.7420863681    0.0050383849
H        0.6861179561    1.2620509688    1.8218243485
H        0.8607838265    2.8953177942    1.1851972806
27   
torsion grid (60,)
C       -3.1347486279   -2.5047000845    2.4688749606
C       -4.0062165817   -1.4924397094    2.0513824766
C       -1.8831641273   -2.1804409497    3.0046186926
C       -3.6261453941   -0.1516973816    2.1553685927
C       -1.4923885759   -0.8433078587    3.1136837474
C       -2.3664483968    0.1577794810    2.6775631307
C       -0.8056507687    2.0917558369   -1.0520998419
C        0.3682415008    1.3153347003   -0.4313867588
C       -1.8811811360    1.9939417985    0.0309404537
C        0.3020472433    1.6591720044    1.0691965434
N       -1.0874598261    2.1632442568    1.2674780877
O       -3.0439353371    2.6955642697    2.7544235492
O       -0.7876673449    1.9902500323    3.7554672202
S       -1.8319861299    1.8746045850    2.7364370582
H       -3.4364397753   -3.5457405984    2.3894813148
H       -4.9852789528   -1.7451465966    1.6534804028
H       -1.2165893080   -2.9666530119    3.3485726555
H       -4.2982992617    0.6484980599    1.8623877881
H       -0.5402799768   -0.5715580236    3.5583591913
H       -0.5347328466    3.1402402456   -1.2115310599
H       -1.1408597194    1.6730820493   -2.0046975005
H        0.2156164129    0.2405684427   -0.5745450441
H        1.3344936820    1.5774499216   -0.8695525483
H       -2.6439179098    2.7720078821   -0.0273314394
H       -2.3724053788    1.0106297324   -0.0062338222
H        0.5129201488    0.7866631400    1.6939347397
H        1.0014992064    2.4486502450    1.3534242662
27   
torsion grid (75,)
C       -3.0255409873   -2.5578097896    2.5506909571
C       -3.8901617533   -1.5915123183    2.0236075583
C       -1.8285413001   -2.1723428761    3.1643915652
C       -3.5560839267   -0.2367588227    2.0959683522
C       -1.4835054239   -0.8202780327    3.2429796264
C       -2.3484637259    0.1334795791    2.6972471773
C       -0.7647694990    2.2331443754   -1.0517082661
C        0.2805144440    1.2500828750   -0.4967077392
C       -1.8694262374    2.1893414575    0.0071698754
C        0.2403621156    1.4745862243    1.0272322678
N       -1.0854095619    2.1033457839    1.2558051780
O       -3.0924385221    2.6674226773    2.6463663630
O       -0.8637812891    2.0349871879    3.7550453104
S       -1.8683590417    1.8664250185    2.7040880950
H       -3.2915291188   -3.6101018979    2.4956958897
H       -4.8293012687   -1.8911209084    1.5663897699
H       -1.1685445689   -2.9222736089    3.5919439122
H       -4.2287540928    0.5283064106    1.7214368519
H       -0.5756161132   -0.4990532169    3.7435908275
H       -0.3489220950    3.2441800624   -1.1089900163
H       -1.1315942644    1.9546852895   -2.0431188442
H       -0.0194804455    0.2227513650   -0.7283215754
H        1.2802965569    1.4086748047   -0.9086020439
H       -2.5043243910    3.0754939871    0.0272541794
H       -2.5036800654    1.3014444021   -0.1354864351
H        0.3438327442    0.5326172446    1.5750876270
H        1.0208985060    2.1555647205    1.3757507311
27   
torsion grid (90,)
C       -3.0027557105   -2.6228265981    2.6852124755
C       -3.8518739172   -1.6966399698    2.0674338955
C       -1.8400498279   -2.1900318828    3.3315785909
C       -3.5362548399   -0.3360765343    2.0843059165
C       -1.5142194666   -0.8305807885    3.3558277574
C       -2.3637233533    0.0810941283    2.7231481048
C       -0.6991888158    2.4028060281   -1.0378781717
C        0.2359186225    1.2716794303   -0.5747377751
C       -1.8457858605    2.3470323770   -0.0224150889
C        0.1687651703    1.3329355701    0.9630510964
N       -1.1263767460    1.9991203890    1.2165418239
O       -3.1391671635    2.6119485123    2.5634680895
O       -0.9213422798    2.0328728133    3.7205825067
S       -1.9107436648    1.8208286160    2.6622615307
H       -3.2541338551   -3.6800760764    2.6727940876
H       -4.7643848797   -2.0325542766    1.5823485458
H       -1.1909597928   -2.9080569026    3.8254846516
H       -4.1973022585    0.3987015115    1.6351587366
H       -0.6309730851   -0.4706334216    3.8738356485
H       -0.1917609668    3.3702539937   -0.9664870821
H       -1.0508783851    2.2738766125   -2.0648713014
H       -0.1472873937    0.3071143668   -0.9240277100
H        1.2581506858    1.3816021406   -0.9454185817
H       -2.3744527400    3.2921954319    0.1019828345
H       -2.5741686228    1.5700975067   -0.2984361911
H        0.2015561953    0.3330480921    1.4094372827
H        0.9772553839    1.9277702290    1.3976330886
27   
torsion grid (105,)
C       -3.1195460601   -2.6900819930    2.9666162482
C       -3.9827978637   -1.7857549254    2.3353742353
C       -1.9311812965   -2.2386097204    3.5498825502
C       -3.6569886481   -0.4291440555    2.2755341150
C       -1.5955704978   -0.8819381773    3.4989878963
C       -2.4606682279    0.0055106243    2.8545372150
C       -0.6803533727    2.6298721965   -0.8815977396
C        0.2475659604    1.4551342124   -0.5252629943
C       -1.8955252443    2.4145728433    0.0303686780
C        0.0876599878    1.3074531916    0.9978433733
N       -1.2713564890    1.8281152935    1.2298622362
O       -3.2290787486    2.5320763942    2.6093770946
O       -0.9836346332    1.9891822361    3.7280855370
S       -2.0013230385    1.7376504591    2.7039161427
H       -3.3792843782   -3.7443960989    3.0125404445
H       -4.9135709502   -2.1362482720    1.8976074693
H       -1.2695526844   -2.9387524341    4.0527676809
H       -4.3239574100    0.2894923690    1.8090697064
H       -0.6913530268   -0.5059846439    3.9671031433
H       -0.1986189557    3.5808909240   -0.6318877132
H       -0.9563152330    2.6517500652   -1.9391959217
H       -0.0964003176    0.5430648676   -1.0245697604
H        1.2878032575    1.6265151006   -0.8134832663
H       -2.4220520787    3.3352098207    0.2833529593
H       -2.6126665378    1.7151536791   -0.4216512829
H        0.1719150449    0.2639099370    1.3215702852
H        0.8202209352    1.9011361179    1.5542613727
27   
torsion grid (120,)
C       -3.2106040182   -2.7458279755    3.1560177080
C       -4.0820064241   -1.8756172929    2.4889467216
C       -1.9971420583   -2.2743206372    3.6671358669
C       -3.7384116151   -0.5327207930    2.3211041961
C       -1.6435933971   -0.9305893513    3.5089555703
C       -2.5180920678   -0.0799496460    2.8299367412
C       -0.6428833018    2.7899320967   -0.8547339424
C        0.3173461451    1.6186342117   -0.5887016371
C       -1.9094371508    2.3985270653   -0.0802446381
C        0.0641541254    1.2826397673    0.8876075395
N       -1.3702812634    1.6001819890    1.0466256812
O       -3.2731478460    2.4315634815    2.4611753661
O       -1.0027290292    1.9441213026    3.5445267074
S       -2.0473222620    1.6332967010    2.5618805861
H       -3.4831265435   -3.7899444440    3.2852616392
H       -5.0308929342   -2.2414161342    2.1060828173
H       -1.3293587003   -2.9482143955    4.1969615415
H       -4.4075435555    0.1615107277    1.8220567313
H       -0.7187089709   -0.5373203960    3.9188773842
H       -0.2282110843    3.7149792382   -0.4401752567
H       -0.8415552010    2.9506872574   -1.9177556936
H        0.0520357624    0.7627904228   -1.2186516246
H        1.3649821474    1.8677925226   -0.7766144630
H       -2.4767873013    3.2547402057    0.2853950458
H       -2.5765564522    1.7762961905   -0.6891898773
H        0.2537721639    0.2296232797    1.1200257834
H        0.6723608325    1.9008492720    1.5564306239
27   
torsion grid (135,)
C       -3.1421284279   -2.7525327679    3.2362923486
C       -4.0128019118   -1.9384464019    2.5001283695
C       -1.9574422374   -2.2254787691    3.7595335368
C       -3.6972573115   -0.5971954250    2.2767883937
C       -1.6330490584   -0.8815797342    3.5463087053
C       -2.5059610699   -0.0881743683    2.8006942790
C       -0.5310330902    2.8670435517   -0.8071030669
C        0.2914050743    1.5787480054   -0.6427752360
C       -1.8490018175    2.5496260650   -0.0852059574
C       -0.0307867838    1.1468702010    0.7925622010
N       -1.4482685780    1.5464297607    0.9406631999
O       -3.3244270657    2.4040080666    2.3804660463
O       -1.0380208322    1.9970913382    3.4473391074
S       -2.0841052842    1.6282364775    2.4841474907
H       -3.3928056475   -3.7960350470    3.4079211878
H       -4.9388712169   -2.3475362217    2.1055099730
H       -1.2893750549   -2.8553858120    4.3405549083
H       -4.3649360804    0.0533009371    1.7203128739
H       -0.7304992982   -0.4444824273    3.9615320844
H       -0.0242559560    3.6986714908   -0.3060430371
H       -0.6906802997    3.1457325530   -1.8521790450
H       -0.0507087655    0.8163565354   -1.3508807419
H        1.3638483397    1.7279797177   -0.7931415535
H       -2.3094616439    3.4243906886    0.3749505242
H       -2.5819811333    2.0950897351   -0.7604926858
H        0.0773105286    0.0693486371    0.9507161859
H        0.5994973426    1.6723021531    1.5190532520
27   
torsion grid (150,)
C       -3.0566819959   -2.7713022407    3.2833030548
C       -3.8518589178   -2.0467024528    2.3850902603
C       -1.9836453763   -2.1540622975    3.9327868007
C       -3.5736131050   -0.7032850515    2.1304806273
C       -1.6958105533   -0.8072162890    3.6860779299
C       -2.4938055972   -0.1034560081    2.7843500880
C       -0.4706025499    2.9107310697   -0.7329130195
C        0.1540168177    1.5065692503   -0.7136774628
C       -1.8105173577    2.7251753418   -0.0038232340
C       -0.2146509808    0.9948267446    0.6818299085
N       -1.5804388009    1.5379787140    0.8761553296
O       -3.3927855400    2.3805949054    2.4026155475
O       -1.0686263862    2.0308342276    3.3826475125
S       -2.1372874149    1.6248188076    2.4569789211
H       -3.2783089916   -3.8172352049    3.4785985622
H       -4.6893680919   -2.5280780054    1.8876486900
H       -1.3729404680   -2.7161475647    4.6339792661
H       -4.1823922512   -0.1230151300    1.4440307434
H       -0.8753458105   -0.3003418368    4.1839465025
H        0.1643482475    3.6059920343   -0.1738255494
H       -0.6038335962    3.3097003804   -1.7420120066
H       -0.3038565674    0.8726368996   -1.4805506671
H        1.2352863811    1.5122616667   -0.8745122706
H       -2.1046712458    3.6030285378    0.5735741895
H       -2.6251435199    2.4901599000   -0.6954845443
H       -0.2326236153   -0.0962773933    0.7542690987
H        0.4754335627    1.3875198700    1.4385624623
27   
torsion grid (165,)
C       -2.9453208692   -2.7780932917    3.3266755574
C       -3.7882393417   -2.1184412870    2.4224329786
C       -1.9030372539   -2.0857404015    3.9507493038
C       -3.5903847589   -0.7667598229    2.1364646707
C       -1.6928598481   -0.7310533458    3.6729796899
C       -2.5387807090   -0.0942913218    2.7649273810
C       -0.3681267868    2.9157520247   -0.6064050461
C        0.0743654509    1.4476839636   -0.6986527663
C       -1.7539787722    2.8368010500    0.0520669052
C       -0.4236530451    0.8683785635    0.6274127694
N       -1.7375557716    1.5400016851    0.8076175484
O       -3.5724337015    2.3408461303    2.3411216170
O       -1.2300600432    2.1329044782    3.3027264401
S       -2.2843989754    1.6429160598    2.3993567195
H       -3.1050860525   -3.8304439978    3.5465299330
H       -4.6019449072   -2.6569378884    1.9445579238
H       -1.2549503328   -2.5971476036    4.6570815635
H       -4.2373212600   -0.2358089393    1.4450895927
H       -0.8968565751   -0.1682239638    4.1500938519
H        0.3206461569    3.4697544647    0.0397040308
H       -0.4022212266    3.4186335676   -1.5764874731
H       -0.4208895821    0.9478594486   -1.5380042858
H        1.1544976874    1.3275567380   -0.8167138286
H       -1.9535702737    3.6848524184    0.7103003608
H       -2.5597365036    2.7891551364   -0.6855646482
H       -0.5613022259   -0.2155279151    0.6065989247
H        0.2672794175    1.1234018578    1.4409542441
27   
torsion grid (180,)
C       -0.0758566062   -7.7532967883    0.2249063262
C       -1.0263396464   -7.0013473613    0.9230503310
C        1.2454442936   -7.3007338336    0.1161305364
C       -0.6634257821   -5.7861581109    1.5121474414
C        1.6209711518   -6.0913034301    0.7036689957
C        0.6552392333   -5.3482615969    1.3878314553
C        1.7577140844   -0.7837617884   -0.3139424551
C        0.6517401391   -1.5568336353   -1.0854152132
C        1.8305589509   -1.4647589338    1.0607709736
C        0.2225994638   -2.6964747246   -0.1407876531
N        1.4059567717   -2.8547399848    0.7429287832
O       -0.0234362641   -3.2894637856    2.8961334732
O        2.4347660635   -3.9243649992    2.7987888924
S        1.1341847102   -3.7920323896    2.1372851419
H       -0.3626276757   -8.6966984039   -0.2321986845
H       -2.0482249534   -7.3595964752    1.0117962918
H        1.9821771336   -7.8919710012   -0.4206387593
H       -1.3786598485   -5.1830548151    2.0623033563
H        2.6414488449   -5.7266461046    0.6403445808
H        2.7169768291   -0.8763673067   -0.8288289677
H        1.5348809887    0.2813722985   -0.2132160718
H       -0.2027700205   -0.9228532640   -1.3347530883
H        1.0460952529   -1.9618144438   -2.0202997998
H        2.8295871435   -1.4736506999    1.4978235060
H        1.1334989214   -0.9964852434    1.7692067375
H       -0.6640493521   -2.4114796128    0.4418374540
H        0.0157303118   -3.6332719125   -0.6610417561
