
  -OEChem-12102412493D

 17 17  0     0  0  0  0  0  0999 V2000
    1.9058   -1.0683   -0.1202 C   0  0  0  0  0  0  0  0  0  0  0  0
    0.7693   -0.5139    1.9296 C   0  0  0  0  0  0  0  0  0  0  0  0
    2.9254   -1.6760    0.6105 C   0  0  0  0  0  0  0  0  0  0  0  0
    1.7790   -1.1173    2.6623 C   0  0  0  0  0  0  0  0  0  0  0  0
    0.8104   -0.4752    0.5209 C   0  0  0  0  0  0  0  0  0  0  0  0
    2.8833   -1.7108    2.0140 C   0  0  0  0  0  0  0  0  0  0  0  0
   -0.3127    0.1980   -0.2118 C   0  0  0  0  0  0  0  0  0  0  0  0
    3.8703   -2.3664    2.7490 N   0  0  0  0  0  0  0  0  0  0  0  0
   -0.1351    0.1766   -2.1768 Br  0  0  0  0  0  0  0  0  0  0  0  0
   -0.4574    2.1192    0.3406 Br  0  0  0  0  0  0  0  0  0  0  0  0
   -2.0607   -0.6756    0.2267 Br  0  0  0  0  0  0  0  0  0  0  0  0
    1.9743   -1.0590   -1.2011 H   0  0  0  0  0  0  0  0  0  0  0  0
   -0.0658   -0.0631    2.4564 H   0  0  0  0  0  0  0  0  0  0  0  0
    3.7610   -2.1314    0.0839 H   0  0  0  0  0  0  0  0  0  0  0  0
    1.7171   -1.1366    3.7481 H   0  0  0  0  0  0  0  0  0  0  0  0
    3.9722   -2.0597    3.7090 H   0  0  0  0  0  0  0  0  0  0  0  0
    4.7646   -2.4641    2.2834 H   0  0  0  0  0  0  0  0  0  0  0  0
  1  3  1  0  0  0  0
  1  5  2  0  0  0  0
  1 12  1  0  0  0  0
  2  4  2  0  0  0  0
  2  5  1  0  0  0  0
  2 13  1  0  0  0  0
  3  6  2  0  0  0  0
  3 14  1  0  0  0  0
  4  6  1  0  0  0  0
  4 15  1  0  0  0  0
  5  7  1  0  0  0  0
  6  8  1  0  0  0  0
  7  9  1  0  0  0  0
  7 10  1  0  0  0  0
  7 11  1  0  0  0  0
  8 16  1  0  0  0  0
  8 17  1  0  0  0  0
M  END
$$$$
