14
0 1 C6FH6N
C                     1.903345781987    -0.998342640547    -0.114108005967
C                     0.780917673794    -0.445502403051     1.955284398211
C                     2.921229349392    -1.632379723412     0.602146488145
C                     1.794691523979    -1.077426407230     2.679202505481
C                     0.818973923867    -0.398004911859     0.550297048864
C                     2.851174944038    -1.663331287881     1.990589635886
N                    -0.170980734005     0.296575356847    -0.172281964891
F                     3.841851860010    -2.283175552201     2.693519521918
H                     1.954786537708    -0.965037396389    -1.200136813185
H                    -0.045515447366     0.020087492832     2.487688060544
H                     3.759208805074    -2.099104259904     0.093222513901
H                     1.768292291133    -1.118379489773     3.763947243031
H                    -1.065319547039     0.343153153922     0.303378707780
H                    -0.293509076542    -0.038739857069    -1.121397429740
