
  -OEChem-12122420533D

 15 15  0     0  0  0  0  0  0999 V2000
   -0.2446    0.1807   -0.1809 C   0  0  0  0  0  0  0  0  0  0  0  0
    1.8898   -1.0517   -0.1116 C   0  0  0  0  0  0  0  0  0  0  0  0
    0.7639   -0.4971    1.9646 C   0  0  0  0  0  0  0  0  0  0  0  0
    2.9081   -1.6676    0.6045 C   0  0  0  0  0  0  0  0  0  0  0  0
    1.7819   -1.1127    2.6814 C   0  0  0  0  0  0  0  0  0  0  0  0
    0.8041   -0.4570    0.5582 C   0  0  0  0  0  0  0  0  0  0  0  0
    2.8729   -1.7068    2.0138 C   0  0  0  0  0  0  0  0  0  0  0  0
   -1.0981    0.7006   -0.7831 N   0  0  0  0  0  0  0  0  0  0  0  0
    3.8647   -2.3725    2.7293 N   0  0  0  0  0  0  0  0  0  0  0  0
    1.9290   -1.0253   -1.1964 H   0  0  0  0  0  0  0  0  0  0  0  0
   -0.0699   -0.0407    2.4896 H   0  0  0  0  0  0  0  0  0  0  0  0
    3.7391   -2.1276    0.0748 H   0  0  0  0  0  0  0  0  0  0  0  0
    1.7368   -1.1407    3.7676 H   0  0  0  0  0  0  0  0  0  0  0  0
    3.9719   -2.0917    3.6965 H   0  0  0  0  0  0  0  0  0  0  0  0
    4.7546   -2.4735    2.2564 H   0  0  0  0  0  0  0  0  0  0  0  0
  1  6  1  0  0  0  0
  1  8  3  0  0  0  0
  2  4  1  0  0  0  0
  2  6  2  0  0  0  0
  2 10  1  0  0  0  0
  3  5  2  0  0  0  0
  3  6  1  0  0  0  0
  3 11  1  0  0  0  0
  4  7  2  0  0  0  0
  4 12  1  0  0  0  0
  5  7  1  0  0  0  0
  5 13  1  0  0  0  0
  7  9  1  0  0  0  0
  9 14  1  0  0  0  0
  9 15  1  0  0  0  0
M  END
$$$$
