16
0 1 C6H6N4
C                     2.769273525671    -1.804474020898     0.550858617011
C                     1.739096743029    -1.158273180707     2.641652715041
C                     1.765597847779    -1.133729370165    -0.146503298161
C                     0.738231445926    -0.489543583876     1.942452194818
C                     2.763361579041    -1.820765371049     1.952959368176
C                     0.734513849018    -0.463307110065     0.535476451517
N                     5.559481360006    -3.651202593354     1.744298078750
N                     3.746181742756    -2.476823840738     2.750641296627
N                     4.664111551014    -3.070429101780     2.164827662003
N                    -0.310062231826     0.157385367114    -0.169994411186
H                     3.554488028456    -2.312170325179    -0.003941745790
H                     1.738428042955    -1.173309253722     3.727542385695
H                     1.779544307874    -1.134021772325    -1.234304610905
H                    -0.053241222971     0.015185094609     2.492094106419
H                    -0.056642996336     0.459985676384    -1.103822480887
H                    -0.765435869523     0.906367095700     0.339392085107
