
  -OEChem-12102412493D

 15 15  0     0  0  0  0  0  0999 V2000
    2.9270   -1.6360    0.5711 C   0  0  0  0  0  0  0  0  0  0  0  0
    1.7729   -1.0674    2.6997 C   0  0  0  0  0  0  0  0  0  0  0  0
    1.9020   -1.0554   -0.1296 C   0  0  0  0  0  0  0  0  0  0  0  0
    0.7559   -0.4908    1.9841 C   0  0  0  0  0  0  0  0  0  0  0  0
    2.8635   -1.6427    1.9916 C   0  0  0  0  0  0  0  0  0  0  0  0
    0.7914   -0.4683    0.5543 C   0  0  0  0  0  0  0  0  0  0  0  0
    4.7125   -2.6905    3.2740 N   0  0  0  0  0  0  0  0  0  0  0  0
    3.8733   -2.2149    2.6919 N   0  3  0  0  0  0  0  0  0  0  0  0
   -0.2097    0.0991   -0.1400 N   0  0  0  0  0  0  0  0  0  0  0  0
    3.7728   -2.0832    0.0583 H   0  0  0  0  0  0  0  0  0  0  0  0
    1.7522   -1.0878    3.7848 H   0  0  0  0  0  0  0  0  0  0  0  0
    1.9331   -1.0407   -1.2150 H   0  0  0  0  0  0  0  0  0  0  0  0
   -0.0853   -0.0464    2.5076 H   0  0  0  0  0  0  0  0  0  0  0  0
   -1.0054    0.5206    0.3248 H   0  0  0  0  0  0  0  0  0  0  0  0
   -0.2037    0.1255   -1.1530 H   0  0  0  0  0  0  0  0  0  0  0  0
  1  3  1  0  0  0  0
  1  5  2  0  0  0  0
  1 10  1  0  0  0  0
  2  4  2  0  0  0  0
  2  5  1  0  0  0  0
  2 11  1  0  0  0  0
  3  6  2  0  0  0  0
  3 12  1  0  0  0  0
  4  6  1  0  0  0  0
  4 13  1  0  0  0  0
  5  8  1  0  0  0  0
  6  9  1  0  0  0  0
  7  8  3  0  0  0  0
  9 14  1  0  0  0  0
  9 15  1  0  0  0  0
M  CHG  1   8   1
M  END
$$$$
