16
0 1 C7H7NO
C                     1.900048240657    -1.060921840997    -0.115432155518
C                     0.766699449450    -0.501259472068     1.949613989227
C                     2.914482371706    -1.672642769456     0.603716382300
C                     1.779465889104    -1.111299336824     2.681299513056
C                     0.809114087699    -0.464089398027     0.545947757244
C                     2.871763303100    -1.705900027825     2.016980640026
C                    -0.270483173786     0.189287201559    -0.208236704091
N                     3.863685590012    -2.366749853192     2.734403467459
O                    -0.326603946300     0.279217719908    -1.428282592720
H                     1.928438661511    -1.029103447215    -1.200975611982
H                    -0.070744177264    -0.043411438777     2.472884841378
H                     3.751435297685    -2.135588430319     0.084936461341
H                     1.733250504332    -1.136579381036     3.767840569106
H                    -1.078689997740     0.621505864886     0.422738040840
H                     3.967691306688    -2.090047704158     3.702994876204
H                     4.753227078249    -2.473261435631     2.262231231504
