
  -OEChem-12122420533D

 17 17  0     0  0  0  0  0  0999 V2000
    1.8900   -1.0591   -0.1205 C   0  0  0  0  0  0  0  0  0  0  0  0
    0.7597   -0.5023    1.9423 C   0  0  0  0  0  0  0  0  0  0  0  0
    2.9098   -1.6731    0.6034 C   0  0  0  0  0  0  0  0  0  0  0  0
    1.7741   -1.1139    2.6692 C   0  0  0  0  0  0  0  0  0  0  0  0
    0.8096   -0.4689    0.5417 C   0  0  0  0  0  0  0  0  0  0  0  0
    2.8694   -1.7088    2.0096 C   0  0  0  0  0  0  0  0  0  0  0  0
   -0.2987    0.2019   -0.2112 C   0  0  0  0  0  0  0  0  0  0  0  0
    3.8594   -2.3734    2.7361 N   0  0  0  0  0  0  0  0  0  0  0  0
   -0.1199    0.1543   -1.5543 F   0  0  0  0  0  0  0  0  0  0  0  0
   -1.5119   -0.3637    0.0466 F   0  0  0  0  0  0  0  0  0  0  0  0
   -0.4252    1.5176    0.1241 F   0  0  0  0  0  0  0  0  0  0  0  0
    1.9380   -1.0384   -1.2043 H   0  0  0  0  0  0  0  0  0  0  0  0
   -0.0756   -0.0466    2.4666 H   0  0  0  0  0  0  0  0  0  0  0  0
    3.7433   -2.1329    0.0773 H   0  0  0  0  0  0  0  0  0  0  0  0
    1.7224   -1.1385    3.7553 H   0  0  0  0  0  0  0  0  0  0  0  0
    3.9670   -2.0684    3.6961 H   0  0  0  0  0  0  0  0  0  0  0  0
    4.7523   -2.4620    2.2660 H   0  0  0  0  0  0  0  0  0  0  0  0
  1  3  1  0  0  0  0
  1  5  2  0  0  0  0
  1 12  1  0  0  0  0
  2  4  2  0  0  0  0
  2  5  1  0  0  0  0
  2 13  1  0  0  0  0
  3  6  2  0  0  0  0
  3 14  1  0  0  0  0
  4  6  1  0  0  0  0
  4 15  1  0  0  0  0
  5  7  1  0  0  0  0
  6  8  1  0  0  0  0
  7  9  1  0  0  0  0
  7 10  1  0  0  0  0
  7 11  1  0  0  0  0
  8 16  1  0  0  0  0
  8 17  1  0  0  0  0
M  END
$$$$
