15
1 1 C6H6N3
C                     2.927018331114    -1.635969883864     0.571066296572
C                     1.772858333738    -1.067383015362     2.699653828813
C                     1.902032491152    -1.055374481589    -0.129596583706
C                     0.755940027899    -0.490763930025     1.984110670583
C                     2.863489977252    -1.642698541434     1.991553664470
C                     0.791360081153    -0.468331922852     0.554344556011
N                     4.712496064922    -2.690473360931     3.273999150803
N                     3.873300110209    -2.214944358133     2.691947876186
N                    -0.209748796220     0.099123173182    -0.140022898787
H                     3.772816216039    -2.083244062177     0.058262786611
H                     1.752231143652    -1.087826903754     3.784803969023
H                     1.933102321436    -1.040706842915    -1.215000247427
H                    -0.085331915471    -0.046351235145     2.507602406593
H                    -1.005399858956     0.520558940657     0.324848385028
H                    -0.203650621545     0.125451173483    -1.152957077033
