16
0 1 C7H6N2O
C                     4.910465725689    -1.496676397652     3.063490821241
C                     1.893253171347    -0.986587164607    -0.126114311904
C                     0.767066264509    -0.432908916789     1.948121048021
C                     2.930666918021    -1.580509561552     0.592399837690
C                     1.801968911858    -1.025366323668     2.671503024692
C                     0.797145887812    -0.405096976587     0.540306278378
C                     2.867506056565    -1.589054582855     1.980451717094
N                     5.839914483548    -0.876019544683     3.401057721231
N                    -0.211144141272     0.244664744680    -0.180710831797
O                     3.904889618972    -2.244881966149     2.718803148660
H                     1.935273625491    -0.968623974311    -1.212479591160
H                    -0.068908794902     0.016440821546     2.478706245787
H                     3.775996285320    -2.032813632753     0.082485127289
H                     1.781166871038    -1.051773187249     3.756879451661
H                    -1.101912045321     0.310646337631     0.297642506193
H                    -0.325781493787    -0.074959793428    -1.135347800455
