
  -OEChem-12102412493D

 16 16  0     0  0  0  0  0  0999 V2000
    5.1255   -1.7009    3.2332 C   0  0  0  0  0  0  0  0  0  0  0  0
    2.9582   -1.2859    0.5304 C   0  0  0  0  0  0  0  0  0  0  0  0
    1.8325   -0.7331    2.6064 C   0  0  0  0  0  0  0  0  0  0  0  0
    1.7968   -0.9911   -0.1757 C   0  0  0  0  0  0  0  0  0  0  0  0
    0.6734   -0.4395    1.8962 C   0  0  0  0  0  0  0  0  0  0  0  0
    2.9886   -1.1591    1.9299 C   0  0  0  0  0  0  0  0  0  0  0  0
    0.6346   -0.5608    0.4935 C   0  0  0  0  0  0  0  0  0  0  0  0
    4.1357   -1.4482    2.6289 N   0  0  0  0  0  0  0  0  0  0  0  0
   -0.5499   -0.3232   -0.2120 N   0  0  0  0  0  0  0  0  0  0  0  0
    6.4579   -2.0388    4.0458 S   0  0  0  0  0  0  0  0  0  0  0  0
    3.8508   -1.6148    0.0068 H   0  0  0  0  0  0  0  0  0  0  0  0
    1.8546   -0.6345    3.6875 H   0  0  0  0  0  0  0  0  0  0  0  0
    1.7864   -1.0989   -1.2579 H   0  0  0  0  0  0  0  0  0  0  0  0
   -0.2154   -0.1160    2.4332 H   0  0  0  0  0  0  0  0  0  0  0  0
   -0.4234   -0.0795   -1.1873 H   0  0  0  0  0  0  0  0  0  0  0  0
   -1.2007    0.3035    0.2467 H   0  0  0  0  0  0  0  0  0  0  0  0
  1  8  2  0  0  0  0
  1 10  2  0  0  0  0
  2  4  1  0  0  0  0
  2  6  2  0  0  0  0
  2 11  1  0  0  0  0
  3  5  2  0  0  0  0
  3  6  1  0  0  0  0
  3 12  1  0  0  0  0
  4  7  2  0  0  0  0
  4 13  1  0  0  0  0
  5  7  1  0  0  0  0
  5 14  1  0  0  0  0
  6  8  1  0  0  0  0
  7  9  1  0  0  0  0
  9 15  1  0  0  0  0
  9 16  1  0  0  0  0
M  END
$$$$
