18
0 1 C7H8N2O
C                     1.858262402521    -1.229881350895    -0.126265376123
C                     0.783725091191    -0.499852813207     1.905479244580
C                     2.891290762399    -1.794431639759     0.617132919045
C                     1.813775628026    -1.052358885877     2.656238087826
C                     0.791721927238    -0.566434027439     0.502480823654
C                     2.889529771769    -1.707125406449     2.022766737732
C                    -0.345652161549     0.057952059044    -0.235231404176
N                     3.895418082457    -2.316862603008     2.775826406448
N                    -0.173336308149     0.245804761728    -1.597594878606
O                    -1.400693531375     0.366985771460     0.318463470390
H                     1.875632718546    -1.345726762064    -1.206710501210
H                    -0.049932934053    -0.002521100775     2.391561183981
H                     3.699023475323    -2.320521916337     0.112710867004
H                     1.790295791767    -0.988054641806     3.742195387327
H                     4.021905728884    -1.940484989121     3.707869307412
H                     4.778528686432    -2.441303259689     2.295287667121
H                     0.761644388893     0.385225059967    -1.957659065069
H                    -0.893588153993     0.815257189518    -2.027047236314
