
  -OEChem-12122420533D

 20 20  0     0  0  0  0  0  0999 V2000
    1.9150   -1.0790   -0.0749 C   0  0  0  0  0  0  0  0  0  0  0  0
    0.8015   -0.5313    1.9779 C   0  0  0  0  0  0  0  0  0  0  0  0
    2.9484   -1.6877    0.6404 C   0  0  0  0  0  0  0  0  0  0  0  0
    1.8290   -1.1369    2.7044 C   0  0  0  0  0  0  0  0  0  0  0  0
    0.8311   -0.4729    0.5769 C   0  0  0  0  0  0  0  0  0  0  0  0
    2.9226   -1.7164    2.0431 C   0  0  0  0  0  0  0  0  0  0  0  0
   -0.2793    0.1661   -0.1959 C   0  0  0  0  0  0  0  0  0  0  0  0
    3.9483   -2.3776    2.7757 N   0  0  0  0  0  0  0  0  0  0  0  0
   -0.9836   -2.0640   -1.4486 O   0  5  0  0  0  0  0  0  0  0  0  0
   -2.1484   -1.4903    0.6995 O   0  0  0  0  0  0  0  0  0  0  0  0
   -2.6087   -0.1556   -1.3731 O   0  0  0  0  0  0  0  0  0  0  0  0
   -1.6459   -1.0141   -0.6217 S   0  0  0  0  0  0  0  0  0  0  0  0
    1.9331   -1.0926   -1.1615 H   0  0  0  0  0  0  0  0  0  0  0  0
   -0.0543   -0.1149    2.5026 H   0  0  0  0  0  0  0  0  0  0  0  0
    3.7749   -2.1576    0.1080 H   0  0  0  0  0  0  0  0  0  0  0  0
    1.7769   -1.1741    3.7922 H   0  0  0  0  0  0  0  0  0  0  0  0
    0.0655    0.5617   -1.1544 H   0  0  0  0  0  0  0  0  0  0  0  0
   -0.7605    0.9685    0.3688 H   0  0  0  0  0  0  0  0  0  0  0  0
    4.0677   -1.9801    3.7023 H   0  0  0  0  0  0  0  0  0  0  0  0
    4.8378   -2.3539    2.2869 H   0  0  0  0  0  0  0  0  0  0  0  0
  1  3  1  0  0  0  0
  1  5  2  0  0  0  0
  1 13  1  0  0  0  0
  2  4  2  0  0  0  0
  2  5  1  0  0  0  0
  2 14  1  0  0  0  0
  3  6  2  0  0  0  0
  3 15  1  0  0  0  0
  4  6  1  0  0  0  0
  4 16  1  0  0  0  0
  5  7  1  0  0  0  0
  6  8  1  0  0  0  0
  7 12  1  0  0  0  0
  7 17  1  0  0  0  0
  7 18  1  0  0  0  0
  8 19  1  0  0  0  0
  8 20  1  0  0  0  0
  9 12  1  0  0  0  0
 10 12  2  0  0  0  0
 11 12  2  0  0  0  0
M  CHG  1   9  -1
M  END
$$$$
