18
0 1 C7F3H6NO
C                     1.848256820365    -0.948854442897    -0.180088090764
C                     0.804064821632    -0.460703013136     1.939273310894
C                     2.908638530183    -1.581535757874     0.474124820486
C                     1.856490791305    -1.090461777630     2.599129045120
C                     0.781209271604    -0.381176732594     0.534951396597
C                     2.903004454506    -1.648247567750     1.866452790425
C                     4.968382176399    -2.856711778111     2.093743991099
N                    -0.247099584278     0.309149083632    -0.129297852587
O                     3.903487516326    -2.254605396307     2.655852534602
F                     5.730729651301    -2.011766334171     1.354413486441
F                     4.629794435360    -3.888523062155     1.279680350196
F                     5.730840979603    -3.343018083358     3.082116673700
H                     1.858303498423    -0.894039039435    -1.266230697541
H                    -0.004612075730    -0.022846649268     2.519787775515
H                     3.712192780475    -2.008065506890    -0.113606457099
H                     1.875052634488    -1.155391763169     3.682765050578
H                    -1.122955110485     0.335289998622     0.380624975392
H                    -0.397978447706     0.006088956407    -1.084912920650
