
  -OEChem-12122420533D

 18 18  0     0  0  0  0  0  0999 V2000
    2.0055   -0.7973   -0.1742 C   0  0  0  0  0  0  0  0  0  0  0  0
    0.7606   -0.6471    1.8981 C   0  0  0  0  0  0  0  0  0  0  0  0
    3.0506   -1.4303    0.4977 C   0  0  0  0  0  0  0  0  0  0  0  0
    1.8043   -1.2798    2.5725 C   0  0  0  0  0  0  0  0  0  0  0  0
    0.8441   -0.3999    0.5148 C   0  0  0  0  0  0  0  0  0  0  0  0
    2.9379   -1.6707    1.8647 C   0  0  0  0  0  0  0  0  0  0  0  0
    4.0279   -3.6028    2.6605 C   0  0  0  0  0  0  0  0  0  0  0  0
   -0.1783    0.2925   -0.1496 N   0  0  0  0  0  0  0  0  0  0  0  0
    4.0244   -2.2542    2.5597 O   0  0  0  0  0  0  0  0  0  0  0  0
    2.9429   -4.0862    3.3142 F   0  0  0  0  0  0  0  0  0  0  0  0
    5.1226   -3.9626    3.3448 F   0  0  0  0  0  0  0  0  0  0  0  0
    4.0605   -4.2223    1.4548 F   0  0  0  0  0  0  0  0  0  0  0  0
    2.0926   -0.6030   -1.2407 H   0  0  0  0  0  0  0  0  0  0  0  0
   -0.1238   -0.3355    2.4489 H   0  0  0  0  0  0  0  0  0  0  0  0
    3.9473   -1.7364   -0.0318 H   0  0  0  0  0  0  0  0  0  0  0  0
    1.7421   -1.4700    3.6394 H   0  0  0  0  0  0  0  0  0  0  0  0
   -1.0901    0.2124    0.2856 H   0  0  0  0  0  0  0  0  0  0  0  0
   -0.2315    0.1082   -1.1448 H   0  0  0  0  0  0  0  0  0  0  0  0
  1  3  1  0  0  0  0
  1  5  2  0  0  0  0
  1 13  1  0  0  0  0
  2  4  2  0  0  0  0
  2  5  1  0  0  0  0
  2 14  1  0  0  0  0
  3  6  2  0  0  0  0
  3 15  1  0  0  0  0
  4  6  1  0  0  0  0
  4 16  1  0  0  0  0
  5  8  1  0  0  0  0
  6  9  1  0  0  0  0
  7  9  1  0  0  0  0
  7 10  1  0  0  0  0
  7 11  1  0  0  0  0
  7 12  1  0  0  0  0
  8 17  1  0  0  0  0
  8 18  1  0  0  0  0
M  END
$$$$
