16
0 1 C7H6N2O
C                     5.108592102287    -1.681468143554     3.213121768388
C                     2.920208460717    -1.420112668099     0.552013165266
C                     1.793895059359    -0.868681216757     2.621291071371
C                     1.797808642338    -1.013417851508    -0.165533690722
C                     0.672777495571    -0.462704192010     1.901357996588
C                     2.931670015758    -1.342258635169     1.952181731681
C                     0.656174994511    -0.524355586056     0.495758590295
N                     4.046491360301    -1.761082569144     2.671425801862
N                    -0.496290799691    -0.174848887121    -0.224601773920
O                     6.155722267523    -1.698782668426     3.775433986907
H                     3.795950954672    -1.796948872249     0.031958128316
H                     1.796352489532    -0.817923141971     3.706081593333
H                     1.803840479357    -1.080730309269    -1.251199429456
H                    -0.202457961948    -0.098604944648     2.434857680176
H                    -0.319680281635     0.110143542599    -1.181239656863
H                    -1.096689616596     0.491881758673     0.247163556511
