
  -OEChem-12122420533D

 14 14  0     0  0  0  0  0  0999 V2000
    1.9009   -0.9981   -0.1149 C   0  0  0  0  0  0  0  0  0  0  0  0
    0.7789   -0.4454    1.9531 C   0  0  0  0  0  0  0  0  0  0  0  0
    2.9181   -1.6282    0.6026 C   0  0  0  0  0  0  0  0  0  0  0  0
    1.7940   -1.0744    2.6747 C   0  0  0  0  0  0  0  0  0  0  0  0
    0.8146   -0.3988    0.5478 C   0  0  0  0  0  0  0  0  0  0  0  0
    2.8614   -1.6652    1.9968 C   0  0  0  0  0  0  0  0  0  0  0  0
   -0.1752    0.2890   -0.1731 N   0  0  0  0  0  0  0  0  0  0  0  0
    4.1422   -2.4620    2.9045 Cl  0  0  0  0  0  0  0  0  0  0  0  0
    1.9543   -0.9677   -1.2010 H   0  0  0  0  0  0  0  0  0  0  0  0
   -0.0471    0.0181    2.4881 H   0  0  0  0  0  0  0  0  0  0  0  0
    3.7503   -2.0889    0.0793 H   0  0  0  0  0  0  0  0  0  0  0  0
    1.7539   -1.1054    3.7592 H   0  0  0  0  0  0  0  0  0  0  0  0
   -1.0686    0.3481    0.3023 H   0  0  0  0  0  0  0  0  0  0  0  0
   -0.2946   -0.0347   -1.1263 H   0  0  0  0  0  0  0  0  0  0  0  0
  1  3  1  0  0  0  0
  1  5  2  0  0  0  0
  1  9  1  0  0  0  0
  2  4  2  0  0  0  0
  2  5  1  0  0  0  0
  2 10  1  0  0  0  0
  3  6  2  0  0  0  0
  3 11  1  0  0  0  0
  4  6  1  0  0  0  0
  4 12  1  0  0  0  0
  5  7  1  0  0  0  0
  6  8  1  0  0  0  0
  7 13  1  0  0  0  0
  7 14  1  0  0  0  0
M  END
$$$$
