20
-1 1 C7H8NO3S
C                     1.914960401536    -1.079044012003    -0.074912844826
C                     0.801486712596    -0.531307339447     1.977888176306
C                     2.948412224893    -1.687736993755     0.640364306604
C                     1.828955266818    -1.136850436187     2.704400469016
C                     0.831097384347    -0.472939781040     0.576929759986
C                     2.922565003255    -1.716352796474     2.043100292676
C                    -0.279326254153     0.166107604574    -0.195875299078
N                     3.948273604035    -2.377600399059     2.775736112940
O                    -0.983579173172    -2.064027674410    -1.448575686774
O                    -2.148361672788    -1.490333579062     0.699456144567
O                    -2.608706665790    -0.155570553870    -1.373085192105
S                    -1.645890601870    -1.014108385434    -0.621701252987
H                     1.933120593925    -1.092569680964    -1.161497838460
H                    -0.054319813129    -0.114871449929     2.502628458319
H                     3.774939195632    -2.157597603733     0.107950960328
H                     1.776850298445    -1.174060023890     3.792199135874
H                     0.065538692793     0.561725625581    -1.154439969163
H                    -0.760488962204     0.968527314802     0.368835113517
H                     4.067664772395    -1.980118414828     3.702332685010
H                     4.837844313437    -2.353934816307     2.286931191658
