
  -OEChem-12122420533D

 17 17  0     0  0  0  0  0  0999 V2000
    1.9547   -1.0147   -0.0620 C   0  0  0  0  0  0  0  0  0  0  0  0
    0.7977   -0.4120    1.9628 C   0  0  0  0  0  0  0  0  0  0  0  0
    2.9766   -1.5998    0.6889 C   0  0  0  0  0  0  0  0  0  0  0  0
    1.8134   -1.0011    2.7152 C   0  0  0  0  0  0  0  0  0  0  0  0
    0.8503   -0.4100    0.5585 C   0  0  0  0  0  0  0  0  0  0  0  0
    2.9161   -1.5972    2.0867 C   0  0  0  0  0  0  0  0  0  0  0  0
   -0.1464    0.2407   -0.2029 N   0  0  0  0  0  0  0  0  0  0  0  0
    3.9807   -2.0998    2.8959 N   0  0  0  0  0  0  0  0  0  0  0  0
    4.6909   -3.1620    2.2356 O   0  0  0  0  0  0  0  0  0  0  0  0
    2.0188   -1.0286   -1.1484 H   0  0  0  0  0  0  0  0  0  0  0  0
   -0.0454    0.0506    2.4719 H   0  0  0  0  0  0  0  0  0  0  0  0
    3.8128   -2.0779    0.1912 H   0  0  0  0  0  0  0  0  0  0  0  0
    1.7477   -0.9895    3.8017 H   0  0  0  0  0  0  0  0  0  0  0  0
   -1.0494    0.2650    0.2589 H   0  0  0  0  0  0  0  0  0  0  0  0
   -0.2479   -0.1428   -1.1367 H   0  0  0  0  0  0  0  0  0  0  0  0
    3.5986   -2.5315    3.7364 H   0  0  0  0  0  0  0  0  0  0  0  0
    5.6041   -2.8321    2.2193 H   0  0  0  0  0  0  0  0  0  0  0  0
  1  3  1  0  0  0  0
  1  5  2  0  0  0  0
  1 10  1  0  0  0  0
  2  4  2  0  0  0  0
  2  5  1  0  0  0  0
  2 11  1  0  0  0  0
  3  6  2  0  0  0  0
  3 12  1  0  0  0  0
  4  6  1  0  0  0  0
  4 13  1  0  0  0  0
  5  7  1  0  0  0  0
  6  8  1  0  0  0  0
  7 14  1  0  0  0  0
  7 15  1  0  0  0  0
  8  9  1  0  0  0  0
  8 16  1  0  0  0  0
  9 17  1  0  0  0  0
M  END
$$$$
