17
0 1 C6H8N2O
C                     1.954724851521    -1.014707763293    -0.061958803671
C                     0.797699904601    -0.412044306056     1.962780394488
C                     2.976590906070    -1.599799187444     0.688928026375
C                     1.813426281107    -1.001065045625     2.715171204376
C                     0.850261335944    -0.409972746613     0.558489733397
C                     2.916137542770    -1.597169531256     2.086694197046
N                    -0.146357927889     0.240748425854    -0.202899697916
N                     3.980733635768    -2.099835297053     2.895946447623
O                     4.690901353683    -3.161953290217     2.235628810485
H                     2.018784335257    -1.028578857970    -1.148358241316
H                    -0.045440923340     0.050588796288     2.471909361399
H                     3.812812159886    -2.077904812291     0.191186561445
H                     1.747711308801    -0.989465904509     3.801694548865
H                    -1.049351608831     0.264989499406     0.258945464852
H                    -0.247884184745    -0.142760163161    -1.136651560807
H                     3.598582566218    -2.531549104154     3.736386169869
H                     5.604062698469    -2.832070075077     2.219279949355
