15   
torsion grid (-165,)
C       -1.9152326076    0.1876918270   -1.0099044340
C       -1.8441235449   -0.2580017670    1.5354300883
C       -1.1244457711   -1.3789800257    0.8399753243
C       -1.1214287296    0.0328671161    0.2441062213
C       -1.7895961253    0.2141222556   -3.3707998832
O       -3.1276919060    0.2856547830   -1.0784029564
O       -1.1124253073    0.1154155285   -2.1013403905
H       -2.9280847028   -0.2459214252    1.4889939886
H       -1.4134419167    0.1456663798    2.4467249739
H       -0.1868402996   -1.7410812602    1.2502853360
H       -1.7233112720   -2.1300029791    0.3338977933
H       -0.1708608080    0.5558298156    0.2625094340
H       -1.0043513782    0.1557577570   -4.1246246341
H       -2.3266707165    1.1626553613   -3.4467125981
H       -2.4989849227   -0.6086025209   -3.4889144863
15   
torsion grid (-150,)
C       -1.9174005555    0.2778678836   -0.9957833385
C       -1.8788314372   -0.3297339830    1.5231809270
C       -1.0525156796   -1.3553923291    0.7892626021
C       -1.1456952995    0.0765155107    0.2720153186
C       -1.8047360830    0.1490397956   -3.3543074330
O       -3.0889375370    0.5994533863   -1.0753450819
O       -1.1520920675   -0.0107687487   -2.0780548367
H       -2.9595706696   -0.3966629709    1.4503308579
H       -1.5066524060    0.0516945687    2.4692665947
H       -0.1044864633   -1.6698553415    1.2149176050
H       -1.5748079694   -2.1249443764    0.2287008082
H       -0.2423303539    0.6742114475    0.3520668602
H       -1.0502280353   -0.1013058898   -4.1001578062
H       -2.1481062449    1.1782923359   -3.4838574975
H       -2.6610992065   -0.5253404433   -3.4310118030
15   
torsion grid (-135,)
C       -1.9024568561    0.3548769238   -0.9885027646
C       -1.9145386281   -0.4106606404    1.4935958160
C       -0.9610662700   -1.3279949043    0.7586443751
C       -1.1613155767    0.1003749619    0.2929900227
C       -1.8455298965    0.0913364610   -3.3373879247
O       -2.9759439632    0.9197444242   -1.0850672002
O       -1.2263525013   -0.1395914860   -2.0548780909
H       -2.9803322034   -0.5762482782    1.3713865692
H       -1.6231531964   -0.0346700507    2.4696551012
H       -0.0132674331   -1.5804662557    1.2243795444
H       -1.3865106616   -2.1174305354    0.1463265066
H       -0.3365383242    0.7895994558    0.4570361145
H       -1.1739002221   -0.3571477673   -4.0694844866
H       -1.9567190876    1.1627323566   -3.5213494294
H       -2.8298651879   -0.3813838196   -3.3761203762
15   
torsion grid (-120,)
C       -1.8564132906    0.4319497110   -0.9843585365
C       -1.9556618423   -0.4895658538    1.4450818025
C       -0.8832734608   -1.2976160417    0.7401474738
C       -1.1641801786    0.1213483453    0.3127372322
C       -1.8974086410    0.0370973759   -3.3142420484
O       -2.7811867447    1.2128651963   -1.1093067244
O       -1.3081871392   -0.2399445524   -2.0264918461
H       -2.9940225446   -0.7393816697    1.2497111483
H       -1.7594701567   -0.1277044396    2.4496561007
H        0.0474500020   -1.4946627661    1.2638039422
H       -1.2025399700   -2.0923748333    0.0732880530
H       -0.4338893000    0.8814314597    0.5805506306
H       -1.3404075415   -0.5720908019   -4.0261309618
H       -1.8030113329    1.0982689637   -3.5566661219
H       -2.9552878673   -0.2365492476   -3.3165563673
15   
torsion grid (-105,)
C       -1.7932544642    0.5019037625   -0.9795326194
C       -1.9898256327   -0.5669030347    1.3784111856
C       -0.8086685754   -1.2598952720    0.7285593242
C       -1.1583667822    0.1502967017    0.3326429504
C       -1.9618923475   -0.0088688345   -3.2801604954
O       -2.5596011858    1.4338839276   -1.1391505423
O       -1.3888713593   -0.3069483227   -1.9898699088
H       -2.9870670465   -0.8885218874    1.0934741034
H       -1.9003788219   -0.2281979438    2.4058062655
H        0.0916719520   -1.4095526359    1.3170172055
H       -1.0160086194   -2.0441394995    0.0080062860
H       -0.5310022790    0.9564970883    0.7037746571
H       -1.5458661623   -0.7507699252   -3.9618232095
H       -1.6872422809    1.0010219850   -3.5937183732
H       -3.0511164031   -0.0867352636   -3.2422130518
15   
torsion grid (-90,)
C       -1.7217096512    0.5635704424   -0.9744936611
C       -2.0185570804   -0.6352807570    1.2997853368
C       -0.7488908718   -1.2209971012    0.7233414730
C       -1.1502450311    0.1829709733    0.3533842134
C       -2.0263697994   -0.0480250113   -3.2366502529
O       -2.3241422891    1.6010902137   -1.1816756953
O       -1.4720624222   -0.3554922087   -1.9408226698
H       -2.9654811732   -1.0048053544    0.9178708400
H       -2.0359480333   -0.3322415286    2.3418096230
H        0.1097720144   -1.3353659782    1.3782650663
H       -0.8454011189   -1.9827150336   -0.0425586708
H       -0.6199290714    1.0111131211    0.8137865453
H       -1.7477320507   -0.8839375794   -3.8784571839
H       -1.6075338270    0.8867066937   -3.6165256728
H       -3.1132596029    0.0464799539   -3.1758355141
15   
torsion grid (-75,)
C       -1.0986094438   -0.5643297005   -1.3291850472
C       -0.8849350120    0.1741922972    1.1383909526
C       -2.0835811994   -0.7408198741    1.1206144871
C       -0.9849213388   -0.9476478162    0.1064559349
C       -2.4791380382    0.3396610586   -3.0217076935
O       -0.1901571997   -0.6671467257   -2.1337926885
O       -2.3320258188   -0.0998147853   -1.6561574181
H       -1.0210226901    1.1910473267    0.7833091354
H       -0.1396324820    0.0572166105    1.9186156069
H       -2.1739639141   -1.4875511817    1.9038127874
H       -3.0218589207   -0.3369045251    0.7574796195
H       -0.2958396869   -1.7732003186    0.2503822637
H       -3.5084419395    0.6886581599   -3.1062155434
H       -2.2950801887   -0.4889803079   -3.7093268044
H       -1.7782821354    1.1486906280   -3.2414518153
15   
torsion grid (-60,)
C       -1.0978349087   -0.6215264210   -1.3356532824
C       -0.9589475787    0.2149410500    1.1119868445
C       -2.0682073318   -0.8007257312    1.1121422572
C       -0.9429003029   -0.9393395996    0.1087012977
C       -2.4490215997    0.3928587052   -2.9900083401
O       -0.2682217357   -0.8886229925   -2.1866638241
O       -2.2723913224    0.0036413078   -1.6132793962
H       -1.1802648150    1.2033809256    0.7225160260
H       -0.2144697623    0.1846653510    1.9011617829
H       -2.0951260323   -1.5346523398    1.9119413473
H       -3.0352308568   -0.4943332994    0.7300474511
H       -0.1935764309   -1.7047334567    0.2774660438
H       -3.4214348504    0.8839128889   -3.0316937685
H       -2.4328125744   -0.4859324670   -3.6387529456
H       -1.6570499062    1.0795369246   -3.2986877163
15   
torsion grid (-45,)
C       -1.0988606115   -0.6514631567   -1.3386089705
C       -1.0239732014    0.2435750512    1.1051110412
C       -2.0468864288   -0.8545159370    1.1010545920
C       -0.8950397096   -0.9083918603    0.1100822996
C       -2.4225851783    0.4327888847   -2.9718631445
O       -0.3743906826   -1.0780116408   -2.2202761586
O       -2.1913707337    0.1203928196   -1.5840579689
H       -1.3166542415    1.2074435576    0.7028099666
H       -0.2913612056    0.2757829849    1.9054538186
H       -2.0259773914   -1.5858804345    1.9032065244
H       -3.0290159485   -0.6303877820    0.7003517523
H       -0.1025526973   -1.6257963566    0.2899512555
H       -3.3201060856    1.0514621346   -2.9857837557
H       -2.5764826344   -0.4823950286   -3.5483303285
H       -1.5722332580    0.9784676098   -3.3878771464
15   
torsion grid (-30,)
C       -1.1035174533   -0.6621632502   -1.3387342378
C       -1.0840935914    0.2626597152    1.1106846295
C       -2.0198088412   -0.9079271897    1.0902276481
C       -0.8491982078   -0.8625928285    0.1106724758
C       -2.3975485950    0.4651759745   -2.9668580584
O       -0.5004696613   -1.2368345446   -2.2277786973
O       -2.0928434074    0.2405489919   -1.5763245071
H       -1.4426239975    1.2047363186    0.7112804245
H       -0.3680464960    0.3424573148    1.9228302428
H       -1.9545422505   -1.6440979066    1.8854257599
H       -3.0106019187   -0.7573629525    0.6757588373
H       -0.0207767451   -1.5373297685    0.2928070723
H       -3.1991107246    1.2040682984   -2.9739241808
H       -2.7253153258   -0.4630404608   -3.4410479928
H       -1.5189927925    0.8447731339   -3.4937956388
15   
torsion grid (-15,)
C       -1.1205744077   -0.6682622418   -1.3365851273
C       -1.1394088991    0.2745461989    1.1192306196
C       -1.9850918405   -0.9621357438    1.0839116016
C       -0.8119301331   -0.8121138610    0.1101052601
C       -2.3700560801    0.4967389590   -2.9719474550
O       -0.6540862553   -1.3780881032   -2.2099734042
O       -1.9884952623    0.3471801171   -1.5900701594
H       -1.5659154264    1.1926575985    0.7317412874
H       -0.4377336390    0.3969837284    1.9388503156
H       -1.8718850363   -1.7017813256    1.8702770543
H       -2.9825895937   -0.8809575410    0.6649073538
H        0.0520296247   -1.4418385283    0.2887044031
H       -3.0667483320    1.3349970870   -2.9927915534
H       -2.8516522351   -0.4136899996   -3.3368827473
H       -1.4933524921    0.7088345011   -3.5882536717
15   
torsion grid (0,)
C       -1.1598098419   -0.6758982859   -1.3309079984
C       -1.1985728902    0.2814288023    1.1270530505
C       -1.9403365892   -1.0214069736    1.0943030488
C       -0.7929202139   -0.7643131288    0.1089373882
C       -2.3312461178    0.5319900090   -2.9914830517
O       -0.8409834664   -1.5017187476   -2.1677860399
O       -1.8888346697    0.4328760675   -1.6228662767
H       -1.7032133641    1.1643489016    0.7518707635
H       -0.5036055812    0.4576793914    1.9427481862
H       -1.7590840200   -1.7547252053    1.8737698362
H       -2.9473665631   -1.0222376421    0.6891623516
H        0.1124324243   -1.3374058287    0.2742313429
H       -2.9072890311    1.4559782879   -3.0452462944
H       -2.9535472722   -0.3262733764   -3.2563239247
H       -1.4731128116    0.5727485745   -3.6662386050
15   
torsion grid (15,)
C       -1.2320873139   -0.6833605824   -1.3224145326
C       -1.2631467779    0.2806288011    1.1359939758
C       -1.8798074340   -1.0900610601    1.1292622410
C       -0.8010015227   -0.7245856224    0.1064769984
C       -2.2767264423    0.5725335349   -3.0303509532
O       -1.0753833942   -1.6028200873   -2.1054102483
O       -1.7993455195    0.4994337360   -1.6713071072
H       -1.8625525937    1.1114108313    0.7808764543
H       -0.5648529898    0.5262131666    1.9307812419
H       -1.6031777428   -1.7986787124    1.9035606624
H       -2.8976125448   -1.1898275569    0.7644420669
H        0.1576369825   -1.2150729056    0.2380972714
H       -2.7143008079    1.5657719599   -3.1323173788
H       -3.0264547058   -0.2004597688   -3.2156079335
H       -1.4486772013    0.4419451118   -3.7308589813
15   
torsion grid (30,)
C       -1.3288833693   -0.6841944515   -1.3114267521
C       -1.3377969579    0.2698972982    1.1486857539
C       -1.8016051464   -1.1652336074    1.1788170676
C       -0.8329997603   -0.6933743729    0.1025150717
C       -2.2065397477    0.6124397548   -3.0810065528
O       -1.3558614821   -1.6664145722   -2.0299971939
O       -1.7125467979    0.5485604177   -1.7269433582
H       -2.0438762213    1.0268498757    0.8242157644
H       -0.6327293269    0.6011282284    1.9054818884
H       -1.4105160523   -1.8296243555    1.9430422793
H       -2.8217568312   -1.3790076867    0.8742130296
H        0.1829337617   -1.0687953521    0.1820045650
H       -2.4724624021    1.6567858602   -3.2448516957
H       -3.0809363844   -0.0319642286   -3.2001592794
H       -1.4319132901    0.2960180375   -3.7833668108
15   
torsion grid (45,)
C       -1.4355566448   -0.6770601205   -1.2971667970
C       -1.4134927341    0.2494955893    1.1653964681
C       -1.7134509528   -1.2338923239    1.2224411125
C       -0.8750329619   -0.6690619860    0.0965412500
C       -2.1293034364    0.6415344600   -3.1314644661
O       -1.6717540153   -1.6818817495   -1.9416741770
O       -1.6191860070    0.5751238395   -1.7833178551
H       -2.2189683853    0.9208319116    0.8852120616
H       -0.7076468171    0.6637988866    1.8791797778
H       -1.2098155975   -1.8403419173    1.9688982050
H       -2.7198070990   -1.5614391211    0.9797254321
H        0.1862811057   -0.9044410812    0.1147846666
H       -2.2172332183    1.7042956641   -3.3571925889
H       -3.1036416986    0.1511099591   -3.1956020466
H       -1.4388815457    0.1549988349   -3.8245372659
15   
torsion grid (60,)
C       -1.5289094175   -0.6541071765   -1.2776170237
C       -1.4916852065    0.2193187572    1.1891584437
C       -1.6256724476   -1.2918192818    1.2452387911
C       -0.9102806058   -0.6410088165    0.0913558086
C       -2.0528680714    0.6525851249   -3.1767282891
O       -1.9825719499   -1.6354572304   -1.8359521457
O       -1.5181068821    0.5801971554   -1.8386069950
H       -2.3799103952    0.7983355432    0.9553841671
H       -0.8006534015    0.7078764922    1.8694373350
H       -1.0277170261   -1.8396186819    1.9670812073
H       -2.6002078946   -1.7248541206    1.0421127099
H        0.1736731244   -0.7265372543    0.0590867590
H       -1.9566570215    1.6974020669   -3.4721438709
H       -3.1009846652    0.3438686413   -3.1856760228
H       -1.4849381476    0.0068896267   -3.8509070973
15   
torsion grid (75,)
C       -1.5967494353   -0.6174452365   -1.2548931798
C       -1.5614026837    0.1818013725    1.2142132594
C       -1.5455693104   -1.3352440958    1.2475183914
C       -0.9272778629   -0.6100198728    0.0866224226
C       -1.9923418291    0.6470536990   -3.2131900524
O       -2.2589131566   -1.5286306231   -1.7160570512
O       -1.4028839013    0.5599788843   -1.8994782390
H       -2.5086651712    0.6732854551    1.0133391785
H       -0.8991285516    0.7287988660    1.8781716147
H       -0.8784847962   -1.8299731530    1.9467785476
H       -2.4779870019   -1.8572206967    1.0573851218
H        0.1570725619   -0.5606139445    0.0246832970
H       -1.7292919204    1.6374496840   -3.5848311886
H       -3.0773999896    0.5337023366   -3.1520891797
H       -1.5884669599   -0.1298518294   -3.8669491653
15   
torsion grid (90,)
C       -1.6467022323   -0.5642394063   -1.2294051919
C       -1.6270008727    0.1370956433    1.2483786813
C       -1.4762907156   -1.3689775093    1.2346588368
C       -0.9368859956   -0.5652427587    0.0858621748
C       -1.9420392473    0.6287133609   -3.2493205749
O       -2.4793121255   -1.3755846237   -1.5922546476
O       -1.2961744825    0.5207520828   -1.9642859277
H       -2.6165542832    0.5472505067    1.0707462297
H       -1.0014719513    0.7239202093    1.9137373962
H       -0.7578684339   -1.8226296650    1.9104942734
H       -2.3620184860   -1.9630660616    1.0343577365
H        0.1348045673   -0.4040042300    0.0130446007
H       -1.5376034817    1.5336541648   -3.7029070389
H       -3.0246549352    0.7102753719   -3.1256624258
H       -1.7177173327   -0.2448462393   -3.8662203456
15   
torsion grid (105,)
C       -1.6954105892   -0.4904041981   -1.2002792120
C       -1.6792182948    0.0883617311    1.2962842816
C       -1.4145868798   -1.3942930688    1.2112744545
C       -0.9502406086   -0.5031157482    0.0900543398
C       -1.9019082019    0.5970364112   -3.2889787832
O       -2.6559537398   -1.1887276008   -1.4737946565
O       -1.2158575527    0.4728429522   -2.0264423184
H       -2.6985388975    0.4283979643    1.1420743579
H       -1.0884873494    0.6927781846    1.9773990402
H       -0.6510326543   -1.8212027013    1.8541420647
H       -2.2562223340   -2.0422811615    0.9898914497
H        0.1039789448   -0.2582539550    0.0099564229
H       -1.3852763217    1.3943247577   -3.8234373530
H       -2.9509014498    0.8574873087   -3.1283846950
H       -1.8478340795   -0.3398800305   -3.8485356162
15   
torsion grid (120,)
C       -1.7450411627   -0.3938978626   -1.1678116378
C       -1.7182686675    0.0367224493    1.3569434649
C       -1.3617361394   -1.4121581064    1.1744423965
C       -0.9718725943   -0.4206774460    0.1020482278
C       -1.8680894991    0.5517242494   -3.3303261130
O       -2.7955488408   -0.9795990962   -1.3679438187
O       -1.1642525562    0.4279244506   -2.0774885853
H       -2.7587886198    0.3181367020    1.2310543137
H       -1.1552831356    0.6340524545    2.0672028509
H       -0.5578808630   -1.8286351142    1.7734153966
H       -2.1647033382   -2.0961923869    0.9204566894
H        0.0655021660   -0.1152881961    0.0190071370
H       -1.2664698596    1.2295739605   -3.9359591327
H       -2.8668048610    0.9638971533   -3.1672086301
H       -1.9582520369   -0.4225123656   -3.8166087818
15   
torsion grid (135,)
C       -1.7928262559   -0.2823811254   -1.1333668619
C       -1.7486088851   -0.0174040800    1.4167017973
C       -1.3148496240   -1.4225135666    1.1252420777
C       -0.9991186199   -0.3271327425    0.1213579383
C       -1.8395200864    0.4957564101   -3.3642466843
O       -2.9088447998   -0.7526499920   -1.2779646131
O       -1.1311367923    0.3829235215   -2.1128715564
H       -2.8043035148    0.2130511043    1.3180707832
H       -1.2092973058    0.5556079828    2.1644206491
H       -0.4752517457   -1.8346557562    1.6762502834
H       -2.0810668715   -2.1314415816    0.8296135569
H        0.0233857816    0.0240842710    0.0405476267
H       -1.1722670129    1.0465961768   -4.0272425786
H       -2.7776713063    1.0379771369   -3.2239537621
H       -2.0561129694   -0.4947469133   -3.7713348791
15   
torsion grid (150,)
C       -1.8365407046   -0.1607191144   -1.0983454777
C       -1.7744965966   -0.0746823867    1.4688259992
C       -1.2709881883   -1.4246192608    1.0630933052
C       -1.0311544779   -0.2268316237    0.1474627349
C       -1.8150482327    0.4308567208   -3.3862069282
O       -2.9994458439   -0.5132415138   -1.2042110270
O       -1.1114699566    0.3383396872   -2.1304328924
H       -2.8417612465    0.1061916335    1.3958011711
H       -1.2565656653    0.4614609775    2.2579284111
H       -0.3996801202   -1.8330342173    1.5655166223
H       -2.0005125794   -2.1501344578    0.7187692852
H       -0.0227325460    0.1644049722    0.0764201799
H       -1.0948012023    0.8426974931   -4.0932159894
H       -2.6814224037    1.0897054677   -3.2907577094
H       -2.1508702441   -0.5573235319   -3.7094239077
15   
torsion grid (165,)
C       -1.8724116347   -0.0381575256   -1.0648297991
C       -1.7951004471   -0.1318911539    1.5073321220
C       -1.2291874666   -1.4176775195    0.9900027644
C       -1.0629579495   -0.1290858388    0.1778452279
C       -1.7976697985    0.3597706095   -3.3933718081
O       -3.0689463024   -0.2599723693   -1.1450206049
O       -1.1000911149    0.2811554109   -2.1334518020
H       -2.8707912444   -0.0003789044    1.4560141595
H       -1.2979781045    0.3586163443    2.3385126841
H       -0.3316492573   -1.8210826822    1.4483529338
H       -1.9237998413   -2.1514731160    0.5943885486
H       -0.0678168799    0.2976673069    0.1248508244
H       -1.0404252605    0.6331378882   -4.1282811009
H       -2.5832063283    1.1178319240   -3.3490135268
H       -2.2454583784   -0.6053895282   -3.6421068457
15   
torsion grid (180,)
C       -1.8993090711    0.0811538645   -1.0342651210
C       -1.8193496436   -0.1928030741    1.5296582242
C       -1.1831404949   -1.4017065588    0.9118582061
C       -1.0946265245   -0.0387433001    0.2118361392
C       -1.7861360234    0.2858620307   -3.3864962936
O       -3.1139373441    0.0037292151   -1.1037934338
O       -1.0979155367    0.2117506842   -2.1212520517
H       -2.9008122752   -0.1164750685    1.4886749576
H       -1.3499318940    0.2494840473    2.4030407088
H       -0.2632686515   -1.7901988598    1.3376689888
H       -1.8349731284   -2.1428631209    0.4604687504
H       -0.1169084596    0.4297514193    0.1876146644
H       -1.0036986026    0.4000028651   -4.1368412013
H       -2.4646960819    1.1420421254   -3.4041383299
H       -2.3587862767   -0.6279154237   -3.5628104310
