14   
torsion grid (-165,)
C        2.0626191157   -0.9838072858   -0.1263349590
C        1.0138716747   -0.1389027057    0.2555623201
C        2.6528575007   -1.8242328842    0.8234784642
C        0.5573778977   -0.1291381578    1.5740046947
C        2.2035742155   -1.8268811394    2.1461652781
C        1.1514858888   -0.9764469382    2.5192687711
N        1.8115128282   -1.8513640967    5.6810631660
N        0.6244811736   -0.9102325733    3.8414821965
N        1.2963904000   -1.4205260056    4.7537443249
H        2.4163313130   -0.9874258242   -1.1534428218
H        0.5511377504    0.5192721656   -0.4749063998
H        3.4670211237   -2.4841959240    0.5358476727
H       -0.2525232954    0.5235016461    1.8859484371
H        2.6646960374   -2.4872388594    2.8764700115
14   
torsion grid (-150,)
C        2.0629773163   -0.9065272815   -0.1190842133
C        0.7120973177   -0.6941535307    0.1787654777
C        2.9449125670   -1.2801477280    0.9007457536
C        0.2423859286   -0.8497758425    1.4842299284
C        2.4858321018   -1.4450346803    2.2097438780
C        1.1298967751   -1.2311734488    2.4982807627
N        1.9147804704   -0.9792291799    5.7412625871
N        0.5810419781   -1.3839837589    3.8083966655
N        1.3329647950   -1.1535708164    4.7707760836
H        2.4253067767   -0.7819803159   -1.1356484351
H        0.0212481248   -0.3985168721   -0.6062505540
H        3.9953494001   -1.4479696189    0.6781514041
H       -0.8014835984   -0.6819065841    1.7317623464
H        3.1735236706   -1.7436489246    2.9972194716
14   
torsion grid (-135,)
C        2.0641874681   -0.8734587015   -0.1126179521
C        0.7182801561   -0.6624099795    0.2067922268
C        2.9530268964   -1.3025044478    0.8791382960
C        0.2589649611   -0.8736759439    1.5090745621
C        2.5024124055   -1.5243388069    2.1828799994
C        1.1523518933   -1.3108983308    2.4935376548
N        1.8008146135   -0.7368902506    5.7262067983
N        0.6283966504   -1.5316470786    3.8100723107
N        1.2922277893   -1.0873604033    4.7623178954
H        2.4178950331   -0.7052617028   -1.1259966326
H        0.0238072669   -0.3235744501   -0.5573139346
H        3.9995296862   -1.4698339379    0.6383909683
H       -0.7809529745   -0.7077895679    1.7740300125
H        3.1898917784   -1.8679749809    2.9518389512
14   
torsion grid (-120,)
C        2.0622722655   -0.8467604252   -0.1085519202
C        0.7254596797   -0.6313113210    0.2432082491
C        2.9638197895   -1.3272942456    0.8475800301
C        0.2874854898   -0.8891927595    1.5453031970
C        2.5339823331   -1.5950038835    2.1500928210
C        1.1942294111   -1.3739447906    2.4933135305
N        1.6170561479   -0.5249222567    5.7040533023
N        0.7057287310   -1.6593030037    3.8173791730
N        1.2266390308   -1.0280801818    4.7529383721
H        2.3993272295   -0.6433566393   -1.1212327538
H        0.0216343793   -0.2550380427   -0.4943720801
H        4.0029904090   -1.4988432144    0.5796781976
H       -0.7461896317   -0.7246404405    1.8346538611
H        3.2263983596   -1.9799273781    2.8943071764
14   
torsion grid (-105,)
C        2.0575398992   -0.8303249383   -0.1085986256
C        0.7349779295   -0.6017787121    0.2857981438
C        2.9754003641   -1.3565694401    0.8068363275
C        0.3280851143   -0.8926991793    1.5914375831
C        2.5766962961   -1.6542897257    2.1132403338
C        1.2532115851   -1.4156002367    2.5003245960
N        1.3726358976   -0.3553898712    5.6757995051
N        0.8092222071   -1.7550547042    3.8320087833
N        1.1399557241   -0.9780537618    4.7440838044
H        2.3702320951   -0.6036684767   -1.1242247556
H        0.0176826579   -0.1943913243   -0.4216772462
H        4.0029370593   -1.5401917717    0.5043618381
H       -0.6963184527   -0.7246780204    1.9107804439
H        3.2785752472   -2.0749284199    2.8281804248
14   
torsion grid (-90,)
C        2.0480362701   -0.8247247803   -0.1127930192
C        0.7448284617   -0.5774374083    0.3317591647
C        2.9864155977   -1.3857396204    0.7600259723
C        0.3777162469   -0.8852948753    1.6452633583
C        2.6282892593   -1.6961693022    2.0754249090
C        1.3266329339   -1.4333831508    2.5146182714
N        1.0845271950   -0.2444055734    5.6398031929
N        0.9366057813   -1.8138007275    3.8534662765
N        1.0410350461   -0.9424658421    4.7339052764
H        2.3289140682   -0.5874808076   -1.1352948063
H        0.0102394927   -0.1481691984   -0.3443465284
H        3.9982337371   -1.5857698476    0.4176568748
H       -0.6344028377   -0.7099905109    1.9988696745
H        3.3437623716   -2.1427869378    2.7599925394
14   
torsion grid (-75,)
C        2.0357669179   -0.8298239141   -0.1190140745
C        0.7565511907   -0.5560855752    0.3771983727
C        2.9932570421   -1.4176381101    0.7144118462
C        0.4330260892   -0.8646803123    1.7015875925
C        2.6803236083   -1.7250104393    2.0418896104
C        1.4050820932   -1.4309982153    2.5346956408
N        0.7834990920   -0.1935031643    5.5875120002
N        1.0740469734   -1.8310431439    3.8812792864
N        0.9397272181   -0.9213994303    4.7182253389
H        2.2819470477   -0.5940719049   -1.1507346413
H        0.0048713661   -0.1103821913   -0.2688468118
H        3.9858850799   -1.6400423308    0.3320494653
H       -0.5635466569   -0.6730297707    2.0901780404
H        3.4103965623   -2.1899100800    2.6979194902
14   
torsion grid (-60,)
C        2.0205097315   -0.8442623856   -0.1256670664
C        0.7681425610   -0.5387710880    0.4186107989
C        2.9957593440   -1.4492997005    0.6743501638
C        0.4888467721   -0.8330765273    1.7557160417
C        2.7287311615   -1.7405414415    2.0148971966
C        1.4817278837   -1.4122670569    2.5569230162
N        0.4956047237   -0.2032609017    5.5221680046
N        1.2127036069   -1.8082713340    3.9132783031
N        0.8454651294   -0.9155035160    4.6972522231
H        2.2313816252   -0.6201339508   -1.1676747119
H        0.0010915376   -0.0818676049   -0.2010235729
H        3.9674381217   -1.6969649674    0.2554797996
H       -0.4895717516   -0.6173022280    2.1773375570
H        3.4730031774   -2.2160958798    2.6467034028
14   
torsion grid (-45,)
C        2.0036794661   -0.8653009857   -0.1320593443
C        0.7790258920   -0.5244356548    0.4526753479
C        2.9935007139   -1.4799501196    0.6427739833
C        0.5412428639   -0.7923781152    1.8029385950
C        2.7692955380   -1.7455490362    1.9956438406
C        1.5496402501   -1.3823933133    2.5783276013
N        0.2419439020   -0.2657915717    5.4511621746
N        1.3430397146   -1.7511219428    3.9473812360
N        0.7651601524   -0.9242489770    4.6745408955
H        2.1816784010   -0.6606081255   -1.1840771694
H       -0.0001967255   -0.0598845644   -0.1457572904
H        3.9443234638   -1.7545419804    0.1939210384
H       -0.4176257047   -0.5456759512    2.2522045237
H        3.5261256963   -2.2257382447    2.6086757242
14   
torsion grid (-30,)
C        1.9857469882   -0.8908116484   -0.1384990930
C        0.7883542080   -0.5112940353    0.4776126245
C        2.9869175759   -1.5092199656    0.6191753306
C        0.5877356695   -0.7433457680    1.8404089303
C        2.8006311100   -1.7411741506    1.9830277036
C        1.6060920422   -1.3429044796    2.5965646324
N        0.0334609932   -0.3766704829    5.3880970505
N        1.4599941185   -1.6657261220    3.9798250811
N        0.7025511424   -0.9481246611    4.6556787040
H        2.1344617719   -0.7117437223   -1.1996294836
H        0.0008640524   -0.0410440259   -0.1053674092
H        3.9176520733   -1.8127975142    0.1474937623
H       -0.3508480206   -0.4605503052    2.3108533975
H        3.5672198989   -2.2222117015    2.5831099255
14   
torsion grid (-15,)
C        1.9681718715   -0.9203494285   -0.1449534989
C        0.7962951560   -0.4992842640    0.4924634185
C        2.9773872083   -1.5371023400    0.6037886993
C        0.6276210958   -0.6880557189    1.8662341290
C        2.8228143880   -1.7289929773    1.9771365560
C        1.6501168371   -1.2959247638    2.6109152273
N       -0.1280519820   -0.5254996150    5.3392232511
N        1.5577897716   -1.5579251405    4.0083463473
N        0.6561383629   -0.9838109520    4.6421794905
H        2.0919944361   -0.7723824203   -1.2139971148
H        0.0043791640   -0.0253374847   -0.0814641636
H        3.8899462363   -1.8706689031    0.1170967301
H       -0.2904273054   -0.3653324200    2.3510523555
H        3.5966583836   -2.2069521543    2.5703297288
14   
torsion grid (0,)
C        1.9514952806   -0.9522442271   -0.1506398248
C        0.8031909500   -0.4866092655    0.4983996881
C        2.9652289941   -1.5644178098    0.5959063185
C        0.6612043389   -0.6274859333    1.8809249452
C        2.8363459406   -1.7115381578    1.9771394144
C        1.6827740091   -1.2426058977    2.6212407808
N       -0.2440016757   -0.7049683117    5.3046302415
N        1.6337882234   -1.4335593667    4.0311432848
N        0.6249305246   -1.0294548164    4.6334002314
H        2.0550308533   -0.8393124738   -1.2260783323
H        0.0106704685   -0.0099521796   -0.0724397678
H        3.8612303505   -1.9295075958    0.1011471730
H       -0.2355943761   -0.2617044489    2.3747276943
H        3.6145397421   -2.1842580985    2.5688493093
14   
torsion grid (15,)
C        1.9358765055   -0.9851148467   -0.1549385334
C        0.8089157973   -0.4729476825    0.4966177009
C        2.9505376530   -1.5911342084    0.5952098569
C        0.6889754926   -0.5631581063    1.8854329146
C        2.8417948678   -1.6903916782    1.9826906741
C        1.7054173907   -1.1836910047    2.6279612821
N       -0.3147735478   -0.9077485446    5.2817795297
N        1.6867684818   -1.2963934758    4.0481187971
N        0.6083966488   -1.0823993377    4.6274579976
H        2.0237779824   -0.9097579844   -1.2350654409
H        0.0189026864    0.0051313331   -0.0765033919
H        3.8313894438   -1.9890013143    0.0985198399
H       -0.1866208153   -0.1542713858    2.3835877827
H        3.6214750367   -2.1567403462    2.5774821470
14   
torsion grid (30,)
C        1.9227234373   -1.0172941588   -0.1580164110
C        0.8145665732   -0.4567199698    0.4864042991
C        2.9329518951   -1.6178133001    0.6018771637
C        0.7100918073   -0.4945843674    1.8788094997
C        2.8370779327   -1.6670450491    1.9936935614
C        1.7166490974   -1.1188653602    2.6308477747
N       -0.3358476678   -1.1311419099    5.2738560774
N        1.7140717852   -1.1507547838    4.0583668559
N        0.6083312067   -1.1427903950    4.6265012682
H        2.0007236379   -0.9808800909   -1.2409612620
H        0.0308528061    0.0218460202   -0.0948920479
H        3.8001339009   -2.0504376808    0.1102073199
H       -0.1457514141   -0.0437300076    2.3753013892
H        3.6142586261   -2.1274075294    2.5963556681
14   
torsion grid (45,)
C        1.9127942600   -1.0469848653   -0.1599579049
C        0.8216204499   -0.4351462881    0.4668035532
C        2.9113434715   -1.6453039712    0.6164950543
C        0.7239076810   -0.4205158532    1.8602880875
C        2.8198285396   -1.6431837781    2.0102821918
C        1.7146734818   -1.0476887918    2.6292191073
N       -0.2997350093   -1.3753151302    5.2836522702
N        1.7120786373   -1.0032276789    4.0613200733
N        0.6267045916   -1.2109622863    4.6316052088
H        1.9877502556   -1.0504613250   -1.2437883467
H        0.0492115781    0.0442748943   -0.1287335235
H        3.7655539958   -2.1157653789    0.1369885576
H       -0.1136844572    0.0723088312    2.3478272619
H        3.5887861483   -2.0996469612    2.6263495654
14   
torsion grid (60,)
C        1.9068242665   -1.0734778071   -0.1607880731
C        0.8305905927   -0.4099144778    0.4387011275
C        2.8856137275   -1.6722693424    0.6396084851
C        0.7286891715   -0.3448318048    1.8307681157
C        2.7884663028   -1.6192983635    2.0327870814
C        1.6981371782   -0.9726269590    2.6240210128
N       -0.2013553901   -1.6262962227    5.3055799294
N        1.6791994529   -0.8609400430    4.0579351342
N        0.6658794042   -1.2844291927    4.6413517739
H        1.9861829404   -1.1159506695   -1.2435513054
H        0.0743706409    0.0697683375   -0.1770210597
H        3.7284689544   -2.1817186701    0.1802538301
H       -0.0938832557    0.1877392854    2.3012632916
H        3.5436496377   -2.0733726530    2.6674418129
14   
torsion grid (75,)
C        1.9050348095   -1.0948339797   -0.1595341328
C        0.8424828440   -0.3802242261    0.4042232180
C        2.8550529856   -1.6984302704    0.6711864676
C        0.7252981607   -0.2696542495    1.7927401140
C        2.7430471090   -1.5975178022    2.0610847767
C        1.6676134734   -0.8969183749    2.6163089349
N       -0.0399611197   -1.8723282308    5.3311962631
N        1.6140001205   -0.7329409202    4.0492039887
N        0.7250844280   -1.3600244005    4.6513844427
H        1.9963622385   -1.1737753439   -1.2393742992
H        0.1079755900    0.1007553539   -0.2362522335
H        3.6869733702   -2.2477319679    0.2385768882
H       -0.0860143355    0.2989930597    2.2391861687
H        3.4778839498   -2.0529872303    2.7184205591
14   
torsion grid (90,)
C        1.9087385401   -1.1082838651   -0.1563094515
C        0.8582120901   -0.3470137302    0.3671307159
C        2.8207960450   -1.7227518502    0.7083745997
C        0.7140864428   -0.2008552585    1.7501429259
C        2.6840338055   -1.5825859113    2.0927703906
C        1.6229857561   -0.8303021020    2.6070564022
N        0.1774741031   -2.0896017559    5.3571159781
N        1.5183388353   -0.6302995187    4.0348096619
N        0.8009441328   -1.4308550962    4.6591488308
H        2.0196626428   -1.2167756950   -1.2317706484
H        0.1510710522    0.1381072468   -0.3004134467
H        3.6424303892   -2.3098092358    0.3067721517
H       -0.0898108893    0.3981616796    2.1685759904
H        3.3918706782   -2.0447534898    2.7749470557
14   
torsion grid (105,)
C        1.9174806542   -1.1130931043   -0.1520673032
C        0.8757830348   -0.3137422553    0.3304245554
C        2.7852699494   -1.7424548754    0.7470232576
C        0.6954041563   -0.1447136941    1.7066137025
C        2.6151865878   -1.5760302438    2.1245504318
C        1.5658682217   -0.7800018495    2.5976199092
N        0.4399102386   -2.2585292293    5.3848726637
N        1.3975176519   -0.5606192919    4.0151426721
N        0.8900453250   -1.4901531797    4.6659003229
H        2.0549408140   -1.2417019578   -1.2222127970
H        0.1997540190    0.1783196232   -0.3637322538
H        3.5988506959   -2.3609560694    0.3774433107
H       -0.1062019997    0.4762622815    2.0957500767
H        3.2910242750   -2.0502047366    2.8310226077
14   
torsion grid (120,)
C        1.9334351008   -1.1081308862   -0.1488835867
C        0.8972542251   -0.2806689757    0.2970413115
C        2.7511086381   -1.7595353970    0.7811537268
C        0.6722400928   -0.1053102099    1.6653986235
C        2.5389965925   -1.5850954280    2.1513954958
C        1.4976099017   -0.7564106110    2.5877507852
N        0.7199084301   -2.3549211599    5.4248627253
N        1.2600445924   -0.5312244446    3.9898759906
N        0.9815481075   -1.5291616680    4.6766051010
H        2.1039955383   -1.2433499244   -1.2133743892
H        0.2567670415    0.2251987485   -0.4204827971
H        3.5591333881   -2.4018144120    0.4410998487
H       -0.1295344376    0.5315404450    2.0271548028
H        3.1783264127   -2.0787346593    2.8787535182
14   
torsion grid (135,)
C        1.9554097772   -1.0935020531   -0.1467411591
C        0.9204375385   -0.2488587517    0.2696306757
C        2.7211355616   -1.7734275966    0.8067762145
C        0.6467208711   -0.0844447577    1.6296555001
C        2.4607147986   -1.6096810063    2.1696486632
C        1.4221151900   -0.7613128076    2.5775751839
N        0.9972150580   -2.3776621137    5.4772271464
N        1.1147805215   -0.5428739834    3.9614486415
N        1.0674804285   -1.5465962000    4.6930375740
H        2.1640463204   -1.2209355977   -1.2053144376
H        0.3178808968    0.2780230173   -0.4654170511
H        3.5275221892   -2.4299925139    0.4909067170
H       -0.1569602675    0.5624825455    1.9682972651
H        3.0623347399   -2.1288367636    2.9116202225
14   
torsion grid (150,)
C        1.9810020339   -1.0719845609   -0.1445342141
C        0.9446279774   -0.2189686802    0.2518527191
C        2.6968698411   -1.7851412378    0.8230690037
C        0.6203595410   -0.0786771204    1.6024723022
C        2.3860479251   -1.6485990327    2.1781519121
C        1.3464741983   -0.7903454829    2.5657004957
N        1.2537098249   -2.3302965800    5.5349087843
N        0.9704300286   -0.5920701088    3.9296420027
N        1.1437373247   -1.5423546942    4.7116067437
H        2.2283770354   -1.1802930691   -1.1968059975
H        0.3800624042    0.3346668500   -0.4935765831
H        3.5038261738   -2.4490811257    0.5245057139
H       -0.1854804154    0.5741210781    1.9243621255
H        2.9507897310   -2.1985948181    2.9269961480
14   
torsion grid (165,)
C        2.0081864512   -1.0450328751   -0.1408231665
C        0.9679066847   -0.1905996008    0.2430409553
C        2.6780269788   -1.7967117049    0.8303230433
C        0.5957204123   -0.0867713036    1.5837302324
C        2.3177659650   -1.7000402748    2.1765180997
C        1.2737601200   -0.8405241304    2.5515043454
N        1.4774425304   -2.2199857177    5.5937240669
N        0.8369770810   -0.6736484316    3.8974508901
N        1.2076816398   -1.5177325885    4.7306028099
H        2.2940453795   -1.1243453368   -1.1858448491
H        0.4401447529    0.3951285667   -0.5048167508
H        3.4874858399   -2.4620004247    0.5416862156
H       -0.2117205895    0.5687043921    1.8961025930
H        2.8474103780   -2.2840591526    2.9251526711
14   
torsion grid (180,)
C        2.0357948647   -1.0143123300   -0.1357803322
C        0.9910530895   -0.1636623991    0.2445623892
C        2.6630611979   -1.8090334852    0.8294347080
C        0.5744799895   -0.1049249216    1.5746516398
C        2.2559678644   -1.7600856724    2.1648262781
C        1.2075697710   -0.9042354879    2.5367944766
N        1.6672191391   -2.0581652870    5.6443955798
N        0.7199705979   -0.7820498973    3.8687342014
N        1.2593662179   -1.4768278737    4.7462978338
H        2.3575556861   -1.0575079856   -1.1724345569
H        0.4972804615    0.4578227533   -0.4976202432
H        3.4751131978   -2.4726648868    0.5442735386
H       -0.2344300953    0.5502475737    1.8838116562
H        2.7508316421   -2.3822186829    2.9064039872
