
  -OEChem-12122420533D

 68 70  0     1  0  0  0  0  0999 V2000
    0.5304    3.6859    0.9244 C   0  0  0  0  0  0  0  0  0  0  0  0
    1.8969    3.0337    0.7851 C   0  0  1  0  0  0  0  0  0  0  0  0
    1.9470    2.5126   -0.1733 H   0  0  0  0  0  0  0  0  0  0  0  0
    3.0580    4.0499    0.8978 C   0  0  0  0  0  0  0  0  0  0  0  0
    3.7184    4.3214   -0.4521 C   0  0  0  0  0  0  0  0  0  0  0  0
    4.6012    3.1648   -0.8860 N   0  3  0  0  0  0  0  0  0  0  0  0
    4.4213    2.7920   -2.3496 C   0  0  0  0  0  0  0  0  0  0  0  0
    3.0558    2.2132   -2.6033 C   0  0  0  0  0  0  0  0  0  0  0  0
    2.7814    0.8922   -2.2167 C   0  0  0  0  0  0  0  0  0  0  0  0
    1.5014    0.3618   -2.3822 C   0  0  0  0  0  0  0  0  0  0  0  0
    0.4853    1.1435   -2.9450 C   0  0  0  0  0  0  0  0  0  0  0  0
    0.7573    2.4529   -3.3534 C   0  0  0  0  0  0  0  0  0  0  0  0
    2.0391    2.9848   -3.1830 C   0  0  0  0  0  0  0  0  0  0  0  0
    6.0559    3.4628   -0.5409 C   0  0  0  0  0  0  0  0  0  0  0  0
    6.9742    2.2936   -0.7613 C   0  0  0  0  0  0  0  0  0  0  0  0
    7.0194    1.2523    0.1762 C   0  0  0  0  0  0  0  0  0  0  0  0
    7.8665    0.1614   -0.0249 C   0  0  0  0  0  0  0  0  0  0  0  0
    8.6813    0.1067   -1.1613 C   0  0  0  0  0  0  0  0  0  0  0  0
    8.6501    1.1481   -2.0944 C   0  0  0  0  0  0  0  0  0  0  0  0
    7.7990    2.2381   -1.8942 C   0  0  0  0  0  0  0  0  0  0  0  0
    1.9731    2.0217    1.8232 O   0  0  0  0  0  0  0  0  0  0  0  0
    2.8626    1.0165    1.6238 C   0  0  0  0  0  0  0  0  0  0  0  0
    3.7852    1.1012    0.7869 O   0  0  0  0  0  0  0  0  0  0  0  0
    2.6481   -0.0426    2.4146 N   0  0  0  0  0  0  0  0  0  0  0  0
    3.5107   -1.2591    2.3918 C   0  0  0  0  0  0  0  0  0  0  0  0
    2.9423   -1.9781    3.6270 C   0  0  0  0  0  0  0  0  0  0  0  0
    1.5669   -1.6223    3.6555 O   0  0  0  0  0  0  0  0  0  0  0  0
    1.4523   -0.2438    3.3120 C   0  0  0  0  0  0  0  0  0  0  0  0
    0.1136   -0.0945    2.5937 C   0  0  0  0  0  0  0  0  0  0  0  0
    1.5564    0.6381    4.5585 C   0  0  0  0  0  0  0  0  0  0  0  0
    4.9988   -0.9569    2.5757 C   0  0  0  0  0  0  0  0  0  0  0  0
    3.2504   -2.0634    1.1100 C   0  0  0  0  0  0  0  0  0  0  0  0
    0.4174    4.1464    1.9104 H   0  0  0  0  0  0  0  0  0  0  0  0
   -0.2657    2.9514    0.7827 H   0  0  0  0  0  0  0  0  0  0  0  0
    0.4152    4.4647    0.1638 H   0  0  0  0  0  0  0  0  0  0  0  0
    2.6833    5.0026    1.2837 H   0  0  0  0  0  0  0  0  0  0  0  0
    3.7978    3.6956    1.6207 H   0  0  0  0  0  0  0  0  0  0  0  0
    2.9601    4.4697   -1.2205 H   0  0  0  0  0  0  0  0  0  0  0  0
    4.3466    5.2138   -0.4242 H   0  0  0  0  0  0  0  0  0  0  0  0
    4.3113    2.3362   -0.3129 H   0  0  0  0  0  0  0  0  0  0  0  0
    5.2057    2.0692   -2.5733 H   0  0  0  0  0  0  0  0  0  0  0  0
    4.6050    3.6992   -2.9303 H   0  0  0  0  0  0  0  0  0  0  0  0
    3.5646    0.2841   -1.7726 H   0  0  0  0  0  0  0  0  0  0  0  0
    1.2978   -0.6615   -2.0797 H   0  0  0  0  0  0  0  0  0  0  0  0
   -0.5098    0.7286   -3.0784 H   0  0  0  0  0  0  0  0  0  0  0  0
   -0.0227    3.0556   -3.8096 H   0  0  0  0  0  0  0  0  0  0  0  0
    2.2484    3.9993   -3.5163 H   0  0  0  0  0  0  0  0  0  0  0  0
    6.0489    3.7704    0.5074 H   0  0  0  0  0  0  0  0  0  0  0  0
    6.3439    4.3222   -1.1507 H   0  0  0  0  0  0  0  0  0  0  0  0
    6.3908    1.2977    1.0602 H   0  0  0  0  0  0  0  0  0  0  0  0
    7.9005   -0.6398    0.7078 H   0  0  0  0  0  0  0  0  0  0  0  0
    9.3459   -0.7390   -1.3139 H   0  0  0  0  0  0  0  0  0  0  0  0
    9.2907    1.1150   -2.9708 H   0  0  0  0  0  0  0  0  0  0  0  0
    7.7864    3.0512   -2.6171 H   0  0  0  0  0  0  0  0  0  0  0  0
    3.0079   -3.0644    3.5487 H   0  0  0  0  0  0  0  0  0  0  0  0
    3.4563   -1.6519    4.5411 H   0  0  0  0  0  0  0  0  0  0  0  0
   -0.6567   -0.5452    3.2243 H   0  0  0  0  0  0  0  0  0  0  0  0
    0.1334   -0.6286    1.6403 H   0  0  0  0  0  0  0  0  0  0  0  0
   -0.1383    0.9510    2.4231 H   0  0  0  0  0  0  0  0  0  0  0  0
    0.7182    0.4168    5.2240 H   0  0  0  0  0  0  0  0  0  0  0  0
    1.5246    1.6956    4.2891 H   0  0  0  0  0  0  0  0  0  0  0  0
    2.4873    0.4418    5.0969 H   0  0  0  0  0  0  0  0  0  0  0  0
    5.5205   -1.8830    2.8394 H   0  0  0  0  0  0  0  0  0  0  0  0
    5.1589   -0.2355    3.3828 H   0  0  0  0  0  0  0  0  0  0  0  0
    5.4351   -0.5686    1.6572 H   0  0  0  0  0  0  0  0  0  0  0  0
    3.8769   -2.9607    1.0946 H   0  0  0  0  0  0  0  0  0  0  0  0
    3.4916   -1.4630    0.2293 H   0  0  0  0  0  0  0  0  0  0  0  0
    2.2031   -2.3732    1.0564 H   0  0  0  0  0  0  0  0  0  0  0  0
  1  2  1  0  0  0  0
  1 33  1  0  0  0  0
  1 34  1  0  0  0  0
  1 35  1  0  0  0  0
  2  3  1  0  0  0  0
  2  4  1  0  0  0  0
  2 21  1  0  0  0  0
  4  5  1  0  0  0  0
  4 36  1  0  0  0  0
  4 37  1  0  0  0  0
  5  6  1  0  0  0  0
  5 38  1  0  0  0  0
  5 39  1  0  0  0  0
  6  7  1  0  0  0  0
  6 14  1  0  0  0  0
  6 40  1  0  0  0  0
  7  8  1  0  0  0  0
  7 41  1  0  0  0  0
  7 42  1  0  0  0  0
  8  9  1  0  0  0  0
  8 13  2  0  0  0  0
  9 10  2  0  0  0  0
  9 43  1  0  0  0  0
 10 11  1  0  0  0  0
 10 44  1  0  0  0  0
 11 12  2  0  0  0  0
 11 45  1  0  0  0  0
 12 13  1  0  0  0  0
 12 46  1  0  0  0  0
 13 47  1  0  0  0  0
 14 15  1  0  0  0  0
 14 48  1  0  0  0  0
 14 49  1  0  0  0  0
 15 16  1  0  0  0  0
 15 20  2  0  0  0  0
 16 17  2  0  0  0  0
 16 50  1  0  0  0  0
 17 18  1  0  0  0  0
 17 51  1  0  0  0  0
 18 19  2  0  0  0  0
 18 52  1  0  0  0  0
 19 20  1  0  0  0  0
 19 53  1  0  0  0  0
 20 54  1  0  0  0  0
 21 22  1  0  0  0  0
 22 23  2  0  0  0  0
 22 24  1  0  0  0  0
 24 25  1  0  0  0  0
 24 28  1  0  0  0  0
 25 26  1  0  0  0  0
 25 31  1  0  0  0  0
 25 32  1  0  0  0  0
 26 27  1  0  0  0  0
 26 55  1  0  0  0  0
 26 56  1  0  0  0  0
 27 28  1  0  0  0  0
 28 29  1  0  0  0  0
 28 30  1  0  0  0  0
 29 57  1  0  0  0  0
 29 58  1  0  0  0  0
 29 59  1  0  0  0  0
 30 60  1  0  0  0  0
 30 61  1  0  0  0  0
 30 62  1  0  0  0  0
 31 63  1  0  0  0  0
 31 64  1  0  0  0  0
 31 65  1  0  0  0  0
 32 66  1  0  0  0  0
 32 67  1  0  0  0  0
 32 68  1  0  0  0  0
M  CHG  1   6   1
M  END
$$$$
