68
1 1 C26H37N2O3
C                     0.530406192991     3.685890651648     0.924385685559
C                     1.896861403200     3.033655746602     0.785088336354
H                     1.946970817853     2.512620779294    -0.173279051175
C                     3.058040322430     4.049911120399     0.897825122457
C                     3.718427699833     4.321447769592    -0.452138491652
N                     4.601168075556     3.164771529288    -0.885961937788
C                     4.421256386015     2.792008465630    -2.349586456040
C                     3.055777587136     2.213191109366    -2.603299623012
C                     2.781406765346     0.892183331376    -2.216660844960
C                     1.501398700996     0.361809354694    -2.382161001722
C                     0.485281781125     1.143514999813    -2.944980828188
C                     0.757315597599     2.452858886563    -3.353442964369
C                     2.039112021625     2.984796698322    -3.182953502610
C                     6.055885144323     3.462836191892    -0.540850362511
C                     6.974202738932     2.293573916141    -0.761268112146
C                     7.019430208061     1.252272918345     0.176174290822
C                     7.866532641813     0.161420263969    -0.024892162608
C                     8.681325525954     0.106658587869    -1.161331078845
C                     8.650110097853     1.148058774641    -2.094355709371
C                     7.799035808128     2.238111810501    -1.894168145203
O                     1.973073796128     2.021731513647     1.823152881037
C                     2.862604531484     1.016511114559     1.623821462095
O                     3.785181097746     1.101229454345     0.786945864782
N                     2.648096188429    -0.042607216419     2.414561628021
C                     3.510701445371    -1.259113581564     2.391820020430
C                     2.942323517199    -1.978134550632     3.626993529731
O                     1.566883110791    -1.622283334447     3.655516726439
C                     1.452269142617    -0.243808943419     3.311964763404
C                     0.113616643760    -0.094474600099     2.593745794149
C                     1.556442132210     0.638129194360     4.558495516335
C                     4.998829419110    -0.956934095178     2.575673418719
C                     3.250422147025    -2.063357270385     1.109959613588
H                     0.417361558045     4.146373040221     1.910400825477
H                    -0.265697485596     2.951374976969     0.782688904003
H                     0.415204949241     4.464662818775     0.163825961778
H                     2.683265813860     5.002640161790     1.283727836176
H                     3.797811615829     3.695581849623     1.620726775557
H                     2.960149020877     4.469714323261    -1.220488317820
H                     4.346557566912     5.213804173667    -0.424218345294
H                     4.311296362073     2.336212253472    -0.312881476334
H                     5.205706047810     2.069228507413    -2.573295661466
H                     4.604984612726     3.699155626748    -2.930320227572
H                     3.564647627639     0.284131955825    -1.772626829292
H                     1.297805267631    -0.661533199525    -2.079677397193
H                    -0.509813584636     0.728587175386    -3.078367151531
H                    -0.022715455653     3.055579214475    -3.809591248709
H                     2.248372762995     3.999335908090    -3.516269167518
H                     6.048942958457     3.770367263285     0.507360239711
H                     6.343939959604     4.322199010728    -1.150714979650
H                     6.390809285697     1.297687827333     1.060163276049
H                     7.900453329650    -0.639845781730     0.707846206908
H                     9.345863293138    -0.739044039867    -1.313904060779
H                     9.290654636923     1.115047414339    -2.970846311732
H                     7.786373274823     3.051184440075    -2.617115132915
H                     3.007862146491    -3.064358005104     3.548652018755
H                     3.456312267693    -1.651864822075     4.541149055618
H                    -0.656723872989    -0.545153356416     3.224322851823
H                     0.133354625628    -0.628552176952     1.640327319520
H                    -0.138337718084     0.950979295777     2.423137241060
H                     0.718167596731     0.416817606207     5.224004985171
H                     1.524600190042     1.695556730065     4.289079640065
H                     2.487257860639     0.441844709004     5.096854184448
H                     5.520504431547    -1.882966230960     2.839390035262
H                     5.158889988695    -0.235514540443     3.382822136965
H                     5.435123800022    -0.568646231601     1.657160451884
H                     3.876947839849    -2.960670001133     1.094603684700
H                     3.491557560174    -1.462996527780     0.229336084294
H                     2.203106849143    -2.373192421687     1.056388633838
