68
1 1 C26H37N2O3
C                     3.038651153012     1.337746706226     3.000200433079
C                     2.580381116771     2.054515094911     1.737556249959
H                     2.081307972099     2.993414735497     1.985572940677
C                     3.748525680293     2.339674093741     0.781110908144
C                     3.269089074219     2.953812224323    -0.528631306168
N                     4.401078144583     3.172354088372    -1.510193012391
C                     3.875909636496     3.334692141420    -2.936869367065
C                     3.280225809705     2.048444305157    -3.438914402702
C                     4.123017116098     0.987074171686    -3.805452019275
C                     3.582762067366    -0.228117743726    -4.230981972619
C                     2.194179581973    -0.385530321132    -4.305139125930
C                     1.350937178466     0.673323553534    -3.956146702575
C                     1.890856088543     1.885578948186    -3.519771786183
C                     5.368300238503     4.296087666160    -1.113057962032
C                     4.720700026221     5.651319821497    -1.064602347873
C                     4.706399123230     6.473334805083    -2.202058501462
C                     4.094304839081     7.727856906493    -2.160083567142
C                     3.495236527145     8.174292360094    -0.977527185085
C                     3.520565689585     7.369159875813     0.165921138400
C                     4.134047386421     6.115778135416     0.123047137290
O                     1.620092985304     1.193705002863     1.081475840582
C                     0.500614140460     1.804844900037     0.558979412821
O                     0.410639155350     3.028065349212     0.460357635046
N                    -0.421753437846     0.908215448196     0.153594362744
C                    -1.719522292794     1.331153258724    -0.444080249881
C                    -2.221853237586    -0.043287378471    -0.915215954683
O                    -1.713736581387    -0.969967645209     0.035152723511
C                    -0.390138994253    -0.572799007971     0.393878964773
C                    -0.213049131605    -0.959344804296     1.860215547980
C                     0.635295180517    -1.248952744106    -0.522241882940
C                    -1.558256707324     2.285681047540    -1.629560817578
C                    -2.634655579413     1.924663109115     0.636388598220
H                     3.493295886144     0.371581627909     2.760621160771
H                     2.187828619345     1.164206289135     3.663298896459
H                     3.773930102317     1.943688739081     3.538933404109
H                     4.448885834165     2.998182675083     1.304692519612
H                     4.272435619762     1.396072750680     0.577685583796
H                     2.577362716420     2.274744944302    -1.020879673520
H                     2.765125099138     3.908973163088    -0.392971822740
H                     4.953025305576     2.307489334701    -1.514590771351
H                     4.733079836018     3.642455749154    -3.539476990815
H                     3.156202827304     4.152253617227    -2.910232983453
H                     5.205248394191     1.113254572532    -3.784836285876
H                     4.240211384101    -1.043462332153    -4.518134662467
H                     1.772627226175    -1.327621207222    -4.643687046383
H                     0.273651124908     0.556275999913    -4.027757264644
H                     1.232082717508     2.705182857522    -3.243831292492
H                     6.172756238513     4.258332750758    -1.850874580650
H                     5.780367611393     4.008578480210    -0.145551673491
H                     5.188632235068     6.143821357810    -3.119696156273
H                     4.094120050399     8.359386297934    -3.043653152970
H                     3.022373243962     9.151546611449    -0.943378601790
H                     3.070795387662     7.719845539240     1.090080367863
H                     4.165976309447     5.505438428269     1.022612660092
H                    -3.310307364505    -0.120225373899    -0.911739747252
H                    -1.849597755417    -0.270319229394    -1.924776675836
H                    -0.469269418491    -2.016567405542     1.966672085406
H                    -0.891754015197    -0.375857104599     2.487013761775
H                     0.812291389382    -0.807965095805     2.194830316480
H                     0.579404033870    -2.332629713172    -0.389573843576
H                     1.646839067352    -0.913986003967    -0.283748397599
H                     0.429710733773    -1.013469605039    -1.569558069840
H                    -2.518639101127     2.381604566593    -2.146877177251
H                    -0.827348782947     1.891942611067    -2.341565309591
H                    -1.237765847913     3.275241817647    -1.303854578082
H                    -3.591182647356     2.226105049472     0.197596770754
H                    -2.170563514333     2.805726130666     1.085563734535
H                    -2.832557621916     1.187370841611     1.419362342440
