17   
torsion grid (-165,)
C        0.6889416124   -0.9107638278    1.7507903646
C        1.4852977951    1.2346418810    0.5169509705
C        2.2173221741   -0.5114028843   -0.3171913572
C        0.8972507530   -0.1957801109    0.4286834486
C       -0.8446217849   -2.2864600571    3.1056507884
N       -0.5448347090   -1.4807506417    1.9273210545
O        1.5695946651   -0.9533764810    2.6091863640
O        2.5832646685    0.8910090474   -0.3665896324
H        0.8665714944    2.0385659277    0.1046186477
H        1.8417018471    1.4951040834    1.5190789090
H        2.9263594049   -1.0913059522    0.2832276489
H        2.1173270216   -0.9415187811   -1.3195564889
H        0.0181468280   -0.2497010638   -0.2190409302
H       -0.4812074094   -3.3164148761    3.0029734687
H       -0.3528501644   -1.8357046965    3.9682201877
H       -1.9249824424   -2.2994861966    3.2703294300
H       -1.1244303927   -1.6077038458    1.1082210769
17   
torsion grid (-150,)
C        0.6856443963   -0.9545106817    1.7208609962
C        1.4666276938    1.2259587473    0.5443802672
C        2.2003683021   -0.4918045505   -0.3463455456
C        0.8851405669   -0.2062786059    0.4170233486
C       -0.8390469335   -2.2513219160    3.1269385936
N       -0.5894211113   -1.4267121167    1.9443900434
O        1.5986289476   -1.1084179761    2.5291311983
O        2.5620141723    0.9134042427   -0.3520563948
H        0.8402852159    2.0366339602    0.1577649797
H        1.8256448002    1.4630248581    1.5517111957
H        2.9145439863   -1.0884133049    0.2308171062
H        2.0956955261   -0.8882698990   -1.3619972699
H       -0.0015455859   -0.2415325625   -0.2211128136
H       -0.3071111614   -3.2094184712    3.0843987847
H       -0.4964428485   -1.7147487497    4.0127220478
H       -1.9132472748   -2.4314352011    3.2108040607
H       -1.1139339308   -1.6814220379    1.1157464704
17   
torsion grid (-135,)
C        0.7194256990   -1.1216443646    1.5630705423
C        1.4194686751    1.1401901436    0.5062427913
C        2.2403949330   -0.4987888583   -0.4611603147
C        0.9079292540   -0.3121700478    0.2957836119
C       -0.8320484171   -2.2202167255    3.0833664065
N       -0.6005542715   -1.4247454405    1.8712079886
O        1.6613101866   -1.4638955208    2.2707121498
O        2.5513426273    0.9174094151   -0.3686352143
H        0.7649709038    1.9367150511    0.1372616156
H        1.7382207823    1.3542748967    1.5327227526
H        2.9673806969   -1.1075914170    0.0855591830
H        2.1633124140   -0.8281171371   -1.5029140978
H        0.0249849778   -0.3512785748   -0.3470374480
H       -0.3714744351   -3.2138576820    3.0278898680
H       -0.4010620043   -1.6981340213    3.9386542150
H       -1.9095085399   -2.3202104790    3.2341777507
H       -1.1359817991   -1.7649895611    1.0784698224
17   
torsion grid (-120,)
C        0.7489267322   -1.2589233079    1.4576532363
C        1.3431386027    1.0891204609    0.5518180085
C        2.2944616917   -0.4439629871   -0.4801863945
C        0.9341356971   -0.3790764503    0.2399205699
C       -0.7941428610   -2.1467045399    3.1085797029
N       -0.5896769774   -1.4093116133    1.8496174231
O        1.6826865664   -1.7847961713    2.0494419815
O        2.5388748595    0.9723164533   -0.2540354004
H        0.6644398846    1.8610599159    0.1740399935
H        1.5797365536    1.2808658531    1.6050561459
H        3.0318708628   -1.0685589919    0.0328898104
H        2.2629095012   -0.6806586554   -1.5491036428
H        0.0663020029   -0.4352349952   -0.4221449484
H       -0.4090951043   -3.1724800234    3.0692049855
H       -0.2761988976   -1.6247859514    3.9146777943
H       -1.8642642152   -2.1612954722    3.3293726112
H       -1.1479679773   -1.8336152390    1.1124609403
17   
torsion grid (-105,)
C        0.7577483608   -1.3626493239    1.3614054648
C        1.2902418290    1.0477453379    0.6081449971
C        2.3532385289   -0.3909372593   -0.4604107818
C        0.9636606042   -0.4172421738    0.2004037521
C       -0.7559023975   -2.0496570735    3.1291078909
N       -0.5873867197   -1.3991420631    1.8121818440
O        1.6521693214   -2.0355481082    1.8502724455
O        2.5483570995    1.0073955412   -0.1048234240
H        0.6128214420    1.8097000065    0.2082224345
H        1.4345162392    1.2074488803    1.6832956186
H        3.0881064436   -1.0397122766    0.0251328569
H        2.3703595582   -0.5346359422   -1.5461353510
H        0.1206130881   -0.4790913622   -0.4928995409
H       -0.4061985518   -3.0882554113    3.1468355759
H       -0.1905305605   -1.4905841994    3.8771124014
H       -1.8152967142   -2.0118814373    3.3949565148
H       -1.1519370827   -1.9216792919    1.1430636782
17   
torsion grid (-90,)
C        0.7259323460   -1.4824572688    1.2892448185
C        1.2255918780    0.9784752790    0.7076617222
C        2.3756118025   -0.3675302925   -0.3978182336
C        0.9616017220   -0.4666618800    0.1994749884
C       -0.7323865295   -1.9675944307    3.1697883423
N       -0.6216329287   -1.4475721684    1.7856333678
O        1.5748045095   -2.2623842062    1.6846859646
O        2.5273088551    1.0014118818    0.0756209172
H        0.5568559378    1.7466109407    0.3051884585
H        1.2966239536    1.0855732434    1.7965743472
H        3.1052922166   -1.0406961897    0.0616386699
H        2.4381949490   -0.4228930548   -1.4899634753
H        0.1452760981   -0.5136804560   -0.5265819774
H       -0.3657137943   -2.9939531571    3.2833219124
H       -0.1560982386   -1.3233332633    3.8377200909
H       -1.7826837848   -1.9168126021    3.4678774470
H       -1.1754376930   -2.0801565371    1.2056009215
17   
torsion grid (-75,)
C        0.9875946507   -2.0869365292    1.0327442313
C        1.5161653863    0.4629200411    1.3384753941
C        2.0577904668   -0.2875783418   -0.5228798272
C        0.9361605947   -0.6815473208    0.4558590718
C       -0.8274649218   -1.3746808200    2.5719447605
N        0.0066370354   -2.4453420730    1.9985880063
O        1.9178715596   -2.8400944126    0.7931675856
O        2.4398484677    0.8523730466    0.3003427606
H        0.8188595577    1.2682344478    1.5954619848
H        2.0405547009    0.1225539703    2.2404688158
H        2.8605815143   -1.0262452090   -0.5922312057
H        1.7359967773    0.0285596310   -1.5203370319
H       -0.0662153172   -0.4480666089    0.0879753840
H       -0.1984943634   -0.6657810769    3.1145030222
H       -1.4350643672   -0.8183005180    1.8436976403
H       -1.5024614855   -1.8300578189    3.3008950889
H       -0.6117767665   -3.1546780047    1.6102852985
17   
torsion grid (-60,)
C        0.9855251936   -2.0705642018    0.9669181107
C        1.5784050229    0.4553877581    1.3373932119
C        2.0650364810   -0.2574696426   -0.5556292174
C        0.9524204829   -0.6475169660    0.4341799065
C       -0.8526213346   -1.3776687400    2.5002018454
N        0.0780693691   -2.3976457645    1.9931235607
O        1.8626708124   -2.8587055944    0.6400043645
O        2.5130062328    0.8308498835    0.3037571852
H        0.9126725630    1.2823724531    1.6102446378
H        2.0904872959    0.0794860094    2.2322002292
H        2.8348109768   -1.0236952123   -0.6777797576
H        1.7310464037    0.1137496826   -1.5299297570
H       -0.0521710569   -0.3845021880    0.0932287120
H       -0.2962365940   -0.5455483651    2.9354971357
H       -1.5473762577   -0.9795994374    1.7471593022
H       -1.4408550284   -1.8273257343    3.3038489915
H       -0.4411426881   -3.2366399115    1.7472582518
17   
torsion grid (-45,)
C        0.9726151527   -2.0416359399    0.9198109272
C        1.6211005536    0.4629413202    1.3399629334
C        2.0740053016   -0.2221988837   -0.5729570789
C        0.9631854762   -0.6063538103    0.4206623437
C       -0.8846026426   -1.3806346988    2.4532151034
N        0.1178752246   -2.3430085874    1.9809540369
O        1.7888889485   -2.8638605951    0.5185860159
O        2.5644363466    0.8284996520    0.3101302437
H        0.9802652755    1.3052491118    1.6262293773
H        2.1223971478    0.0590649713    2.2284981477
H        2.8186200186   -1.0072769965   -0.7269507039
H        1.7390750717    0.1856815835   -1.5321797311
H       -0.0401901365   -0.3195416154    0.0949910908
H       -0.3988543982   -0.4626611633    2.7886571516
H       -1.6438845240   -1.1216949122    1.7021164858
H       -1.3916183954   -1.8129289357    3.3191243067
H       -0.2804787088   -3.2708544508    1.8683620014
17   
torsion grid (-30,)
C        0.9394588931   -2.0344274720    0.9104942028
C        1.6431598465    0.4539208482    1.3457923334
C        2.0918681604   -0.2374010777   -0.5672200029
C        0.9673763868   -0.5966913218    0.4200103980
C       -0.9200565373   -1.3703748131    2.4527348841
N        0.1127043298   -2.2981742208    1.9892965295
O        1.6851348387   -2.8982547137    0.4566609388
O        2.6084820381    0.7921566885    0.3262192269
H        1.0236637975    1.3150752149    1.6234761445
H        2.1219635505    0.0378967362    2.2410026911
H        2.8139638266   -1.0423825520   -0.7258432347
H        1.7725153974    0.1874415426   -1.5243844010
H       -0.0283113197   -0.2897425275    0.0881407208
H       -0.4769597133   -0.4079341786    2.7156118130
H       -1.7184964265   -1.2000073420    1.7174526151
H       -1.3696655991   -1.7792223709    3.3604902565
H       -0.1641331221   -3.2747618028    2.0134910671
17   
torsion grid (-15,)
C       -0.1565174838    0.3948686532    1.6656267270
C        1.5119556379    1.1591301108   -0.1739705979
C        2.0551339768   -0.6459075563    0.7116395966
C        0.6792560393    0.0260127619    0.4514925338
C       -0.4940042862   -2.0618705949    2.1138700425
N       -0.7875278933   -0.6456972210    2.3077815636
O       -0.3050345905    1.5578315709    2.0363584778
O        2.7478819425    0.4053825492    0.0039660492
H        1.3216270193    1.3715582220   -1.2307294459
H        1.5069892792    2.0832540248    0.4097991080
H        2.3529918485   -0.6883427944    1.7676972793
H        2.2103287187   -1.6268077535    0.2474867360
H        0.0707310163   -0.5202187664   -0.2740762832
H       -1.2890959376   -2.6520127710    2.5755090796
H       -0.4815824242   -2.3073485458    1.0497928582
H        0.4642251468   -2.3672393734    2.5542244221
H       -1.1553632590   -0.3754204083    3.2140180220
17   
torsion grid (0,)
C       -0.1726855260    0.3737096208    1.6791924412
C        1.5125892106    1.1415333363   -0.1423752461
C        2.0481516350   -0.6692829885    0.7372659222
C        0.6755219596    0.0064335181    0.4730115096
C       -0.5009537503   -2.0950056367    2.1235789827
N       -0.7196561649   -0.6759450166    2.3690441846
O       -0.3583589245    1.5393196955    2.0276540337
O        2.7470709025    0.3868968993    0.0422007238
H        1.3303461091    1.3580207383   -1.1997452493
H        1.5030764780    2.0638601766    0.4442550740
H        2.3387255922   -0.7210709175    1.7947670282
H        2.2050895014   -1.6461771635    0.2651817917
H        0.0706265973   -0.5359669178   -0.2591258277
H       -1.2770847788   -2.6650129354    2.6386396530
H       -0.5752529280   -2.3278954536    1.0576514242
H        0.4747333964   -2.4389317138    2.4885767617
H       -1.2750442990   -0.3998467347    3.1702802961
17   
torsion grid (15,)
C       -0.2172579363    0.1710285903    1.8793679748
C        1.3495699046    1.1150121594    0.0383382793
C        2.0832391784   -0.6319356006    0.9044788156
C        0.6428313417   -0.1041111803    0.6569604989
C       -0.5726261034   -2.3110010944    2.1105502651
N       -0.6330802768   -0.9329425338    2.5861552954
O       -0.4830478881    1.3106351977    2.2573841380
O        2.6611604164    0.5082582544    0.2317109202
H        1.1475221345    1.3004228946   -1.0215760381
H        1.2328552602    2.0342941196    0.6178578252
H        2.3806581575   -0.6787424601    1.9596259293
H        2.3412846123   -1.5739408050    0.4057006629
H        0.0866196575   -0.7073490020   -0.0660585742
H       -0.7922139777   -2.9797107278    2.9459674137
H       -1.2878075233   -2.5190655295    1.3031231883
H        0.4317786827   -2.5519384318    1.7565624848
H       -1.3521033773   -0.7152438015    3.2678112419
17   
torsion grid (30,)
C       -0.1989297213    0.1841479693    1.8949961093
C        1.3429123294    1.1047184199    0.0198284015
C        2.0786704361   -0.6392202327    0.8894391285
C        0.6370949921   -0.1039444620    0.6594777743
C       -0.5489843515   -2.2868761991    2.1158330327
N       -0.6113204963   -0.9166476265    2.6264896774
O       -0.4099684028    1.3262454629    2.2940826530
O        2.6527790052    0.4892535457    0.1946545485
H        1.1234894291    1.2841879703   -1.0376618676
H        1.2442376005    2.0288328411    0.5950274904
H        2.3934095914   -0.6765821918    1.9398073930
H        2.3203821500   -1.5884284257    0.3964380227
H        0.0685161989   -0.7114434926   -0.0500375837
H       -0.8547107184   -2.9672712423    2.9139045322
H       -1.1969980915   -2.4605520553    1.2457261463
H        0.4762075866   -2.5456540483    1.8442699251
H       -1.4469321324   -0.7110920462    3.1654215249
17   
torsion grid (45,)
C       -0.1784967265    0.2041595114    1.9154923584
C        1.3392827445    1.0896375730    0.0013239128
C        2.0680290954   -0.6545122187    0.8734898277
C        0.6279722307   -0.1031433240    0.6647142532
C       -0.5317075783   -2.2587158966    2.1322816241
N       -0.6404207675   -0.8893515767    2.6491751142
O       -0.2979450547    1.3453486049    2.3476466669
O        2.6424789019    0.4536965050    0.1482647619
H        1.0972879889    1.2668403480   -1.0516199041
H        1.2706287442    2.0179795263    0.5740198315
H        2.4041564010   -0.6775998115    1.9177094496
H        2.2852196891   -1.6155363879    0.3924891176
H        0.0425441519   -0.7111796773   -0.0300168606
H       -0.9046502368   -2.9432796491    2.8978065402
H       -1.0985235303   -2.4332840876    1.2071040213
H        0.5143884602   -2.5134017967    1.9534902109
H       -1.5668399446   -0.7048313585    3.0232883499
17   
torsion grid (60,)
C       -0.1749791196    0.1967653346    1.9716720852
C        1.3147479033    1.0878801328    0.0332615926
C        2.0332584861   -0.6788945731    0.8643801186
C        0.5971244189   -0.1013719324    0.6969406529
C       -0.4939017579   -2.2663915345    2.1741316859
N       -0.7003894469   -0.9009198896    2.6806056621
O       -0.2079403790    1.3205322386    2.4548756601
O        2.6072860085    0.4215025751    0.1278524631
H        1.0442449729    1.2901219013   -1.0081515905
H        1.2853785081    2.0063489072    0.6249775716
H        2.3973570412   -0.7101046865    1.8991110562
H        2.2192594714   -1.6424123469    0.3759248725
H       -0.0096961072   -0.6911026104    0.0051203252
H       -0.9522687844   -2.9616308432    2.8816632461
H       -0.9242219479   -2.4540530797    1.1802381138
H        0.5725046315   -2.4969937863    2.1414160573
H       -1.6891951393   -0.7558822534    2.8681407112
17   
torsion grid (75,)
C       -0.1647501205    0.1654861604    2.0310287861
C        1.2994938510    1.0758742857    0.0739501320
C        1.9964673903   -0.7251033881    0.8433361808
C        0.5697982567   -0.1112316185    0.7293270719
C       -0.4532557298   -2.2935988708    2.2324124700
N       -0.7791536030   -0.9329168405    2.6940569143
O       -0.1119473636    1.2583571999    2.5722351656
O        2.5711316532    0.3646996051    0.0918882340
H        0.9933209147    1.3233905441   -0.9475240193
H        1.3268852647    1.9735904613    0.6970614826
H        2.3949126143   -0.7671131763    1.8650515361
H        2.1417590721   -1.6915363729    0.3476480946
H       -0.0634446898   -0.6709163222    0.0362427553
H       -0.9967342023   -3.0006955658    2.8640793668
H       -0.7108270239   -2.5030235697    1.1841383860
H        0.6119384703   -2.4875998818    2.3746716997
H       -1.7910497019   -0.8241823045    2.6692462860
17   
torsion grid (90,)
C        0.1407952778   -0.4199368265    1.7786909211
C        1.4986735443    1.2507963309    0.3037313710
C        1.9555734321   -0.7598838226   -0.0199515593
C        0.6539626829   -0.0298596763    0.4150641622
C       -0.6065615181   -2.3400078306    3.0644916857
N       -0.5993530410   -1.6507906812    1.7516688293
O        0.3116523354    0.2472380130    2.7841407567
O        2.6626106748    0.4970148952   -0.1414921346
H        1.1750719832    1.9725593156   -0.4539645468
H        1.6796898996    1.7536429418    1.2582284913
H        2.4034469380   -1.4103187202    0.7406994727
H        1.8967343057   -1.2951683808   -0.9734887848
H       -0.1492990911   -0.1302819410   -0.3200841314
H       -1.1943394101   -3.2558794699    2.9632183621
H        0.4173326594   -2.6181051244    3.3245221149
H       -1.0126601416   -1.7289358962    3.8783871012
H       -1.5737098843   -1.4150497488    1.5558237998
17   
torsion grid (105,)
C        0.2644555762   -0.4917501610    1.7676171406
C        1.4489417636    1.2829312354    0.2655093040
C        2.0158896037   -0.6850536194   -0.1181392033
C        0.6887878372   -0.0497069943    0.3860740797
C       -0.6898371440   -2.2972741784    3.0780747536
N       -0.5356868520   -1.6636795683    1.7511760719
O        0.5661324345    0.1055558580    2.7893750721
O        2.6265443905    0.6172284903   -0.2729530947
H        1.0371972205    2.0068222488   -0.4459599713
H        1.6576830185    1.7634384786    1.2258386053
H        2.5445407401   -1.2993331228    0.6204121688
H        1.9477966371   -1.2251974068   -1.0684127805
H       -0.1326616655   -0.1818068611   -0.3231469953
H       -1.3022274476   -3.1945292275    2.9583656866
H        0.2936050612   -2.5952739677    3.4465261168
H       -1.1444799749   -1.6350957309    3.8238047525
H       -1.4703043109   -1.4277932037    1.4190178293
17   
torsion grid (120,)
C        0.3573358707   -0.5990537025    1.7730089144
C        1.3678597543    1.2768395012    0.2670654047
C        2.0627090445   -0.6326223808   -0.1706013194
C        0.7065310552   -0.1096174156    0.3838276664
C       -0.7867891151   -2.2704652542    3.1117301569
N       -0.5325544255   -1.6835226353    1.7845477851
O        0.8153621084   -0.0983022429    2.7918921920
O        2.5519274714    0.7149165054   -0.3645769991
H        0.8658189362    1.9963863495   -0.3885347754
H        1.6028469461    1.7324298572    1.2336862027
H        2.6688126525   -1.1843861792    0.5575814454
H        2.0070194418   -1.1910019259   -1.1110018521
H       -0.1185445769   -0.2796962580   -0.3125528446
H       -1.4551090706   -3.1260896579    2.9877231467
H        0.1570961945   -2.6200738478    3.5328146900
H       -1.2261154636   -1.5552998405    3.8171082427
H       -1.4175034084   -1.4435718750    1.3436277912
17   
torsion grid (135,)
C        0.4606287442   -0.7385055912    1.7580337493
C        1.2997629711    1.2522812448    0.2976778324
C        2.1359082123   -0.5738684309   -0.2140372207
C        0.7508773487   -0.1884079997    0.3761882289
C       -0.8722859397   -2.2477976139    3.1259682893
N       -0.5470576030   -1.6930771452    1.8061220998
O        1.0836274337   -0.3805855292    2.7524772124
O        2.4887427693    0.8158750679   -0.4144895617
H        0.7125926988    1.9626839141   -0.2940311369
H        1.5488333602    1.6745764869    1.2763002406
H        2.8047966074   -1.0610801466    0.5045141893
H        2.1164680985   -1.1332035284   -1.1551956933
H       -0.0663269314   -0.3890606446   -0.3211378664
H       -1.6235414662   -3.0309488891    2.9994696537
H        0.0279316967   -2.6862069677    3.5586637591
H       -1.2442341807   -1.4861213284    3.8217089298
H       -1.3766503827   -1.4377285594    1.2794817346
17   
torsion grid (150,)
C        0.6124345290   -0.8859226950    1.6886241202
C        1.3000420476    1.1546457533    0.2236273196
C        2.1929410501   -0.6203390855   -0.3554025206
C        0.8204724444   -0.3140691572    0.2995955601
C       -0.8228412030   -2.2042927965    3.1678474091
N       -0.4916233039   -1.6973349730    1.8360110233
O        1.3919279937   -0.6560090143    2.6105789711
O        2.4614236720    0.7883872094   -0.5656768875
H        0.6474116806    1.8510260638   -0.3137514620
H        1.5885631804    1.5660379073    1.1965224299
H        2.9155178659   -1.0696063851    0.3344881337
H        2.1636173221   -1.1765448452   -1.2981538542
H       -0.0177372193   -0.5307937408   -0.3676006546
H       -1.6305603379   -2.9342047302    3.0768238135
H        0.0559914635   -2.6939832257    3.5892196019
H       -1.1258516987   -1.4035837711    3.8533571900
H       -1.2834872333   -1.4709339145    1.2457977963
17   
torsion grid (165,)
C        0.6193667106   -0.8851982336    1.6967824468
C        1.3229822490    1.1511812053    0.2363143818
C        2.1670980765   -0.6362091889   -0.3757457461
C        0.8142289167   -0.3081982218    0.3070097512
C       -0.8563030117   -2.1880224862    3.1782196110
N       -0.5049245399   -1.6492403445    1.8689068512
O        1.4384017504   -0.6996204750    2.5962596896
O        2.4601557819    0.7687009299   -0.5801278875
H        0.6745818885    1.8668181721   -0.2804033544
H        1.6396443853    1.5454486284    1.2074783204
H        2.8923505531   -1.1051741289    0.2979394469
H        2.1103635691   -1.1837552786   -1.3224860246
H       -0.0415740648   -0.4954000235   -0.3471744248
H       -1.5537374057   -3.0193331264    3.0497038751
H        0.0511946956   -2.5497502086    3.6631116504
H       -1.3114214210   -1.4292335209    3.8264976443
H       -1.2381235135   -1.5706633723    1.1768032953
17   
torsion grid (180,)
C        0.6577048029   -0.9194054531    1.7039362323
C        1.3738658673    1.1595491325    0.3143983832
C        2.1570061689   -0.6171348269   -0.3999638750
C        0.8323573966   -0.2913091645    0.3334063761
C       -0.8865206870   -2.1924478319    3.1719788811
N       -0.5445742060   -1.5367031663    1.9173660865
O        1.5472449993   -0.8675977361    2.5533885449
O        2.4753494308    0.7896131811   -0.5538144683
H        0.7265219157    1.9126673649   -0.1473665784
H        1.7294299735    1.5016085009    1.2920321453
H        2.8886550049   -1.1281786305    0.2346450361
H        2.0641167942   -1.1218657686   -1.3674735541
H       -0.0464777297   -0.4224562410   -0.3038378316
H       -1.0837293165   -3.2588184907    3.0163481855
H       -0.0365003176   -2.0824386994    3.8456424728
H       -1.7676361157   -1.7289185044    3.6290772767
H       -1.2244194125   -1.5366672470    1.1695641557
