21   
torsion grid (-165,)
C       -0.6771463873    0.6222710355    1.1671909614
C        0.4622174899    1.0200757480    0.5007602311
C        0.7405165506    0.4767304065   -0.8164667955
C       -1.3324985428   -0.7980274057   -0.5001159575
C       -2.1348762680   -1.9477667922   -1.0389042972
C        2.3566789340    3.3843781388    2.5397270742
C        1.1836856598    2.4605215736    2.2653219838
N       -1.5601774181   -0.3162145800    0.6899047219
N       -0.2808070272   -0.3548541701   -1.2591665291
O        1.3851410910    1.8887493128    0.9647128460
S        2.0672548877    0.7918809743   -1.7691856220
H       -0.9201712081    1.0185761705    2.1474185132
H       -2.4309443496   -1.7895874968   -2.0817055201
H       -3.0289776448   -2.0757121985   -0.4290483006
H       -1.5433725336   -2.8691991588   -0.9933442384
H        3.2974741924    2.8277987371    2.5172451240
H        2.4057722336    4.1767372666    1.7879583780
H        2.2441333133    3.8438454135    3.5269428416
H        0.2338324216    3.0116193432    2.2795171954
H        1.1278381093    1.6571731918    3.0121719174
H       -0.1211866162   -0.7586667995   -2.1791653933
21   
torsion grid (-150,)
C       -0.7393242066    0.7000815200    1.1285395235
C        0.4190306361    1.0688110412    0.4777003799
C        0.6936159222    0.5208819749   -0.8396582108
C       -1.3908048885   -0.7288272850   -0.5339739884
C       -2.0520502107   -1.9954433014   -0.9965467430
C        2.3837594410    3.3267565786    2.5700165887
C        1.1758320239    2.4581935481    2.2680004890
N       -1.6079661348   -0.2581962940    0.6622271360
N       -0.3848285413   -0.2167603432   -1.3181810791
O        1.3652560911    1.9026806091    0.9585224554
S        2.0509336586    0.7677353856   -1.7659264955
H       -0.9903909520    1.1081983524    2.1018800195
H       -2.3113626547   -1.9705843226   -2.0606443123
H       -2.9554170370   -2.1689591020   -0.4114982490
H       -1.3635010992   -2.8328076448   -0.8368000963
H        3.3007215744    2.7318625160    2.5441326847
H        2.4725112357    4.1309101742    1.8345559052
H        2.2816534313    3.7714218802    3.5651128669
H        0.2500376799    3.0487066923    2.2848038593
H        1.0789312798    1.6436834545    2.9983800450
H       -0.2287586751   -0.6239314036   -2.2375572952
21   
torsion grid (-135,)
C       -0.8178487103    0.7808903704    1.0763428875
C        0.3656405524    1.1049118767    0.4449166800
C        0.6372839624    0.5471682243   -0.8722518783
C       -1.4681052190   -0.6569046694   -0.5808504634
C       -1.9764354620   -2.0237694457   -0.9447265856
C        2.3999447072    3.2536721755    2.5858088629
C        1.1559744883    2.4484553891    2.2559143569
N       -1.6792298980   -0.1897961807    0.6181772111
N       -0.4928831047   -0.0938472529   -1.3766138857
O        1.3392982608    1.8954505602    0.9444211986
S        2.0187531073    0.7187358487   -1.7741084300
H       -1.0768047395    1.2061340893    2.0401444343
H       -2.2227256804   -2.1244376238   -2.0076981160
H       -2.8578933714   -2.2581190895   -0.3473737132
H       -1.1878972833   -2.7479503700   -0.7113152945
H        3.2867290460    2.6142958162    2.5702842940
H        2.5410712652    4.0583240906    1.8591101201
H        2.3028114386    3.6950443880    3.5828665985
H        0.2603613953    3.0839217298    2.2633643217
H        1.0065240478    1.6331159470    2.9764444707
H       -0.3399721299   -0.4985000484   -2.2980351010
21   
torsion grid (-120,)
C       -0.8820625425    0.8595658113    1.0296134373
C        0.3272716665    1.1290988366    0.4202328817
C        0.5900374977    0.5564939946   -0.8954952306
C       -1.5291577163   -0.6027975135   -0.6115150573
C       -1.8612535680   -2.0445193979   -0.8840427874
C        2.4243661321    3.1724964097    2.6026912055
C        1.1473701922    2.4336002714    2.2450534482
N       -1.7378684613   -0.1233127580    0.5838043448
N       -0.5878764484    0.0177042263   -1.4191710854
O        1.3296768309    1.8703571524    0.9376771700
S        1.9877648313    0.6481312305   -1.7780936223
H       -1.1507249214    1.3101695044    1.9791431174
H       -2.1051504614   -2.2504516330   -1.9324762218
H       -2.6929323970   -2.3573335846   -0.2519235877
H       -0.9736167684   -2.6315271435   -0.6224625268
H        3.2765093843    2.4874208285    2.6064132791
H        2.6236044500    3.9683574336    1.8799175885
H        2.3286462931    3.6188255796    3.5976677185
H        0.2866463684    3.1154061610    2.2328813023
H        0.9387671530    1.6275868256    2.9614014631
H       -0.4463504628   -0.3923959600   -2.3405615043
21   
torsion grid (-105,)
C       -0.9552890399    0.9343946843    0.9733694468
C        0.2762285471    1.1531805664    0.3844399587
C        0.5276263533    0.5710166126   -0.9344372663
C       -1.5998783639   -0.5487976228   -0.6554336236
C       -1.7433362564   -2.0414502941   -0.8096184806
C        2.4341313613    3.0803569144    2.6130314633
C        1.1276559157    2.4102532836    2.2277312924
N       -1.8073228432   -0.0571284086    0.5371915177
N       -0.6875633995    0.1254228413   -1.4681612342
O        1.3038435365    1.8452123514    0.9199760018
S        1.9315260314    0.5964356397   -1.8043699167
H       -1.2296038544    1.4047023625    1.9115300985
H       -1.9412923564   -2.3715583528   -1.8357395519
H       -2.5323130456   -2.4071945524   -0.1516197605
H       -0.7852766518   -2.4711313953   -0.4949770893
H        3.2496998412    2.3522581925    2.6288557908
H        2.6876808034    3.8684663887    1.8988121883
H        2.3428162056    3.5263248956    3.6085816506
H        0.3036572699    3.1356231407    2.2040686002
H        0.8640945538    1.6119147205    2.9344522018
H       -0.5586397309   -0.2803452344   -2.3939060224
21   
torsion grid (-90,)
C       -1.0260682192    0.9983662940    0.9118172240
C        0.2258921442    1.1653294385    0.3429477809
C        0.4656342557    0.5796203038   -0.9818000452
C       -1.6638934929   -0.5112195250   -0.7028975549
C       -1.6107253635   -2.0227343297   -0.7138371067
C        2.4359907248    2.9740772112    2.6189260401
C        1.1046147884    2.3730372249    2.2061721630
N       -1.8770154932    0.0028330283    0.4840095390
N       -0.7785182224    0.2141456140   -1.5159694016
O        1.2755255281    1.8056176718    0.8982865064
S        1.8681618922    0.5601129915   -1.8478250859
H       -1.3039834705    1.4883154879    1.8387312862
H       -1.7391794469   -2.4800195119   -1.7014502235
H       -2.3550350138   -2.4233253176   -0.0251041678
H       -0.6077116790   -2.2763744099   -0.3501571870
H        3.2131938223    2.2054598743    2.6462614229
H        2.7425405806    3.7514331943    1.9137588872
H        2.3487595672    3.4198853980    3.6149016779
H        0.3191447118    3.1393726953    2.1710744288
H        0.7873226974    1.5855421472    2.9028326845
H       -0.6637254747   -0.1801280908   -2.4492904491
21   
torsion grid (90,)
C       -0.3037179357    0.0157199761    1.4691038002
C        0.6081833616    0.6452951595    0.6378610478
C        0.8396585168    0.0708927923   -0.6932921468
C       -1.0400137905   -1.3598410265   -0.2216576871
C       -2.2061961443   -1.2126585049   -1.1734872918
C        1.9442075928    3.6429527256    2.2395068919
C        1.0959113067    2.3847928688    2.1994585750
N       -1.2551594176   -0.8430900590    0.9637115434
N        0.2683248183   -1.2098005098   -0.7083482844
O        1.3053939158    1.7649625908    0.9213084786
S        1.8005990524    0.6521215666   -1.9000356568
H       -0.4486356580    0.3247082942    2.4986578909
H       -2.1484926721   -0.1803988697   -1.5391963266
H       -3.1432385843   -1.3511049563   -0.6334807903
H       -2.1788071907   -1.8818925324   -2.0408773031
H        3.0024039971    3.3978678205    2.1143288834
H        1.6512155817    4.3301329227    1.4410687435
H        1.8135139152    4.1478377054    3.2019682904
H        0.0290127594    2.6169644034    2.3177054955
H        1.3871110105    1.6865245508    2.9951275016
H        0.4232080272   -1.6585669658   -1.6107546010
21   
torsion grid (105,)
C       -0.3520959724    0.1138360794    1.4387142889
C        0.6011280007    0.7112151350    0.6350705402
C        0.8376633195    0.1493295404   -0.6953010484
C       -1.0640812487   -1.2776014892   -0.2421582162
C       -2.2337158079   -1.3743274584   -1.1881836875
C        2.0299791892    3.6300276792    2.3012312254
C        1.1253063059    2.4133647936    2.2259220421
N       -1.2970781426   -0.7512280272    0.9307739525
N        0.2150259115   -1.1022951199   -0.7718471762
O        1.3388222994    1.7976047862    0.9469428735
S        1.8364001649    0.7259364788   -1.8778460276
H       -0.5160476348    0.4339724544    2.4620499186
H       -2.3119029859   -0.3944062780   -1.6731006960
H       -3.1482215375   -1.5693457621   -0.6270574192
H       -2.1178304030   -2.1313070336   -1.9721702051
H        3.0784822796    3.3367849691    2.2004194775
H        1.7902331209    4.3374866908    1.5027616390
H        1.8978863669    4.1314188798    3.2653393034
H        0.0678849923    2.6948912252    2.3200840635
H        1.3628748616    1.6946736734    3.0213711684
H        0.3633701094   -1.5344381993   -1.6826263739
21   
torsion grid (120,)
C       -0.4056415627    0.2114551457    1.3971392107
C        0.5875009711    0.7751052166    0.6209634044
C        0.8349430677    0.2234062176   -0.7066147788
C       -1.0967116065   -1.1910122133   -0.2779874848
C       -2.2522800152   -1.5125429208   -1.1859526488
C        2.1032586175    3.6091982607    2.3549754177
C        1.1442514735    2.4377546347    2.2426537266
N       -1.3410672549   -0.6630952965    0.8898518361
N        0.1498651241   -0.9857691864   -0.8500565913
O        1.3615856498    1.8269258114    0.9622768062
S        1.8890435390    0.7825238395   -1.8543426785
H       -0.5878712074    0.5444386818    2.4133794661
H       -2.4604686816   -0.6089038688   -1.7699008655
H       -3.1313203568   -1.7609656178   -0.5903928031
H       -2.0476338200   -2.3285747704   -1.8883189886
H        3.1389255962    3.2672883307    2.2776193518
H        1.9182530808    4.3349752535    1.5584132184
H        1.9698530140    4.1067392302    3.3208979379
H        0.0995181915    2.7691065840    2.3138274606
H        1.3268685545    1.7002898996    3.0355280789
H        0.2981266218   -1.4049883923   -1.7662694260
21   
torsion grid (135,)
C       -0.4617461507    0.2964441230    1.3510323907
C        0.5734463796    0.8222259338    0.6052006208
C        0.8369935434    0.2755603794   -0.7182418144
C       -1.1275476921   -1.1201229074   -0.3182262581
C       -2.2570448578   -1.6419895838   -1.1614440189
C        2.1646633583    3.5736241025    2.4043174388
C        1.1547250845    2.4500656986    2.2549597599
N       -1.3843496283   -0.5909380500    0.8455809217
N        0.0825895375   -0.8765845591   -0.9327078297
O        1.3824124558    1.8367723828    0.9776711828
S        1.9560062143    0.8041950963   -1.8225937549
H       -0.6663188169    0.6476615520    2.3568157060
H       -2.6024968441   -0.8236040949   -1.8030196099
H       -3.0794509483   -1.9566984511   -0.5185407000
H       -1.9637840310   -2.4765607457   -1.8081203805
H        3.1846457257    3.1827904980    2.3557640897
H        2.0388877546    4.3116477104    1.6074917666
H        2.0258262458    4.0716801539    3.3692178418
H        0.1255750192    2.8313599335    2.2966983243
H        1.2773291501    1.7004389492    3.0480697944
H        0.2399439226   -1.2872359802   -1.8507206463
21   
torsion grid (150,)
C       -0.5159690704    0.3962199250    1.3007929662
C        0.5526693874    0.8870241136    0.5807510674
C        0.8252712605    0.3418485772   -0.7381610312
C       -1.1728950882   -1.0252084589   -0.3659830644
C       -2.2431958528   -1.7353640783   -1.1442328669
C        2.2226536618    3.5458073952    2.4457653221
C        1.1653317134    2.4723869557    2.2599075009
N       -1.4281796278   -0.5027730514    0.8008248738
N        0.0047092310   -0.7465707553   -1.0177416862
O        1.3927058177    1.8653203382    0.9796812611
S        2.0045022698    0.8309896244   -1.8018222859
H       -0.7350246166    0.7607472619    2.2988511869
H       -2.6869977703   -1.0324178552   -1.8581682462
H       -3.0212355528   -2.0794026362   -0.4625045524
H       -1.8557775716   -2.5901721068   -1.7093654369
H        3.2241871896    3.1083031122    2.4147347553
H        2.1493706697    4.2980026875    1.6556891007
H        2.0851427941    4.0385659575    3.4135717170
H        0.1544767305    2.9011186182    2.2850514151
H        1.2355760258    1.7079553960    3.0452694528
H        0.1604711454   -1.1532826643   -1.9373737160
21   
torsion grid (165,)
C       -0.5686328457    0.4746241652    1.2508399268
C        0.5219786661    0.9387748489    0.5468097427
C        0.7997097656    0.3962578034   -0.7708782282
C       -1.2182360960   -0.9534249317   -0.4120901769
C       -2.2213460909   -1.8300831603   -1.1058081418
C        2.2703483333    3.5017194636    2.4731574455
C        1.1716702970    2.4767833910    2.2560511443
N       -1.4663372032   -0.4438813362    0.7621933269
N       -0.0871079611   -0.6182784049   -1.1098305065
O        1.3872743010    1.8858207437    0.9663338784
S        2.0319025113    0.8400594525   -1.7965325317
H       -0.7967229022    0.8505725451    2.2426073538
H       -2.7210680865   -1.2671094496   -1.9022556374
H       -2.9706493242   -2.1550248895   -0.3842339573
H       -1.7536400858   -2.7108313350   -1.5592893307
H        3.2532394904    3.0238630830    2.4418915094
H        2.2356999950    4.2720384002    1.6980510544
H        2.1437589945    3.9802489747    3.4495571411
H        0.1794724667    2.9471270541    2.2803980919
H        1.2018841608    1.6946874585    3.0264696604
H        0.0730849586   -1.0228322385   -2.0294040472
21   
torsion grid (180,)
C       -0.6125280720    0.5555343081    1.2081264026
C        0.4998002588    0.9916263605    0.5209704711
C        0.7771172867    0.4518365446   -0.7974482413
C       -1.2641610736   -0.8702409226   -0.4561043358
C       -2.1737270609   -1.8946373911   -1.0723750257
C        2.3238920881    3.4545730116    2.5063547406
C        1.1872468900    2.4788530228    2.2599524789
N       -1.5006201557   -0.3759122816    0.7270156590
N       -0.1760380201   -0.4784039984   -1.1903962256
O        1.3921426482    1.9031152208    0.9616004908
S        2.0563108349    0.8417988000   -1.7879651590
H       -0.8476454945    0.9400790407    2.1949511129
H       -2.5953755368   -1.5311767386   -2.0161855137
H       -2.9876762604   -2.1056451093   -0.3793836738
H       -1.6348439118   -2.8254386993   -1.2819243513
H        3.2871505029    2.9384128210    2.4733813381
H        2.3268705137    4.2408386237    1.7466438762
H        2.2077617734    3.9184799174    3.4910767285
H        0.2148160554    2.9887700296    2.2840196893
H        1.1779042527    1.6819108451    3.0155753247
H       -0.0170728149   -0.8810752290   -2.1109771061
