19   
torsion grid (-165,)
C        0.5896149984   -1.4384048119    0.7809872903
C       -0.0088943760   -1.9141756564    1.8870232640
C       -0.3729328676    0.9189796698    0.1808254477
C       -1.3063423505   -0.0856126952   -0.4543841791
C        0.1577008519   -0.4428126295   -0.2503511074
C       -1.3369849979   -1.5575912366    2.5095166093
C        1.0090491613   -0.4874065168   -1.5116577862
H        1.5683766791   -1.8681835108    0.5634593355
H        0.5508119902   -2.6718556794    2.4353970505
H       -0.0741323153    1.7852921491   -0.4038800278
H       -0.4614079002    1.1037467805    1.2468922100
H       -2.0548971075   -0.5712502469    0.1591411920
H       -1.6237542421    0.0975211737   -1.4776679666
H       -1.2513869514   -1.5662496478    3.6018081718
H       -1.7082054285   -0.5739897602    2.2190360055
H       -2.1067948118   -2.2961861638    2.2490450271
H        0.6827576673    0.2641065934   -2.2377044985
H        0.9409836314   -1.4701424811   -1.9925940451
H        2.0643303975   -0.2944549582   -1.2840072268
19   
torsion grid (-150,)
C        0.6582665272   -1.2660034125    0.8977731396
C        0.0641789824   -1.7841230562    1.9863881133
C       -0.2328142293    1.0199199139    0.0849530585
C       -1.3034219518    0.0356344050   -0.3258185151
C        0.1369028855   -0.4305383993   -0.2251769082
C       -1.3966691523   -1.7676505332    2.3807084258
C        0.8771549131   -0.6569226995   -1.5370638677
H        1.7360425281   -1.4259954998    0.8283953115
H        0.7241657702   -2.3037332147    2.6798618994
H        0.0757805722    1.7833052054   -0.6247522506
H       -0.2046813849    1.3260497698    1.1264226072
H       -2.0219073794   -0.2699863791    0.4221804848
H       -1.7170367042    0.1239271757   -1.3269735135
H       -1.5581209369   -2.3918489919    3.2640809383
H       -1.7504029514   -0.7599554312    2.6309208816
H       -2.0402461450   -2.1543582122    1.5848402076
H        0.5177435432    0.0210780571   -2.3180320902
H        0.7402271856   -1.6841025125   -1.8944698476
H        1.9527299558   -0.4833658128   -1.4133533086
19   
torsion grid (-135,)
C        0.6804148758   -1.1041258218    1.0011048107
C        0.0683282781   -1.6834819672    2.0469341771
C       -0.1196276853    1.1091927426   -0.0224391936
C       -1.2830083734    0.1654123762   -0.2329359357
C        0.1248161669   -0.3905110504   -0.1876267425
C       -1.4027739663   -1.9489815981    2.2556137830
C        0.7740761516   -0.7963815256   -1.5048172551
H        1.7714157164   -1.0644441165    1.0401623941
H        0.7188134444   -2.0500103350    2.8412801585
H        0.1789781248    1.7620637034   -0.8387181654
H        0.0061048197    1.5312944477    0.9701044091
H       -1.9470413981    0.0090253603    0.6076385391
H       -1.7818608924    0.1751428329   -1.1985551211
H       -1.5383302829   -2.8834831119    2.8104161735
H       -1.8813090098   -1.1578996027    2.8489150963
H       -1.9459358864   -2.0394423792    1.3135769776
H        0.4101579159   -0.1802737705   -2.3338345856
H        0.5619853623   -1.8447141484   -1.7443971737
H        1.8626886670   -0.6770516638   -1.4515375801
19   
torsion grid (-120,)
C        0.6939377377   -0.9742589736    1.0867415427
C        0.0665606918   -1.6468340632    2.0645212568
C       -0.0501901468    1.1778279029   -0.0950099935
C       -1.2585081801    0.2676499118   -0.1581314023
C        0.1296346081   -0.3356278722   -0.1419566518
C       -1.3806182492   -2.0630930645    2.1313915356
C        0.6907189311   -0.8931641041   -1.4436408285
H        1.7694716182   -0.8223450455    1.2013562210
H        0.6791556735   -1.9694435986    2.9071426855
H        0.2198594892    1.7460082104   -0.9815661151
H        0.1465511505    1.6816261632    0.8468928361
H       -1.8708379958    0.2017563413    0.7337741053
H       -1.8177917534    0.2206964274   -1.0890991749
H       -1.4545375624   -3.0958307458    2.4911140593
H       -1.9467197920   -1.4430996895    2.8397235245
H       -1.8750429690   -2.0092693241    1.1606783380
H        0.3209755958   -0.3317726057   -2.3085389966
H        0.4096497442   -1.9442790871   -1.5753144885
H        1.7856234367   -0.8352164109   -1.4491936876
19   
torsion grid (-105,)
C        0.6932167496   -0.8524156948    1.1691297576
C        0.0694056074   -1.6239182834    2.0724448854
C        0.0066355659    1.2332864210   -0.1647072291
C       -1.2360423108    0.3679709224   -0.1020995610
C        0.1325605128   -0.2798678873   -0.0963406109
C       -1.3365278302   -2.1594991262    2.0068669983
C        0.6041344871   -0.9829108206   -1.3623789386
H        1.7386246242   -0.5996520567    1.3570617530
H        0.6426294121   -1.9254789960    2.9500424480
H        0.2501783781    1.7212320522   -1.1050983219
H        0.2629619128    1.8048406107    0.7230437278
H       -1.8046403827    0.3836136568    0.8218197317
H       -1.8403856053    0.2717758710   -1.0006970321
H       -1.3355346736   -3.2401109172    2.1938780686
H       -1.9711548057   -1.7083085345    2.7812354060
H       -1.8033488152   -1.9842164085    1.0367309725
H        0.2267861717   -0.4802267138   -2.2597873408
H        0.2592957615   -2.0229529069   -1.3828917972
H        1.6990972685   -0.9918308163   -1.4173681512
19   
torsion grid (-90,)
C        0.6696120801   -0.7386034194    1.2499112976
C        0.0712164992   -1.6076609795    2.0781561804
C        0.0677867257    1.2758410987   -0.2347569837
C       -1.2132899623    0.4816079764   -0.0683171906
C        0.1265817310   -0.2276227714   -0.0522670955
C       -1.2725631457   -2.2571614038    1.8853015475
C        0.5062058542   -1.0669438065   -1.2651078408
H        1.6667372320   -0.3831715802    1.5152656104
H        0.6062542809   -1.8913582024    2.9852769174
H        0.2974670246    1.6805324819   -1.2171588701
H        0.3812917634    1.9015932769    0.5967055758
H       -1.7482060733    0.5832811399    0.8709191715
H       -1.8502689792    0.3486823254   -0.9394032743
H       -1.1728016927   -3.3497866142    1.8953130487
H       -1.9559372727   -1.9975059168    2.7041593487
H       -1.7404151056   -1.9670872101    0.9431256062
H        0.1250064188   -0.6210970206   -2.1906868873
H        0.0978413787   -2.0802282443   -1.1800955100
H        1.5953732713   -1.1519807580   -1.3554558859
19   
torsion grid (-75,)
C        0.6141851499   -0.6350533391    1.3274164995
C        0.0676460114   -1.5959403920    2.0871944504
C        0.1392885628    1.3011534107   -0.3050821590
C       -1.1881054764    0.6087157590   -0.0657526888
C        0.1084407272   -0.1827108918   -0.0128929835
C       -1.1898022900   -2.3644048464    1.7830018293
C        0.3965051201   -1.1384411342   -1.1635494974
H        1.5387865600   -0.1712698235    1.6739699781
H        0.5679946418   -1.8522313128    3.0215834239
H        0.3760685517    1.6197419440   -1.3169752905
H        0.5072880784    1.9645594394    0.4735386920
H       -1.6998644372    0.8056365491    0.8714513613
H       -1.8448415076    0.4527734150   -0.9181260582
H       -0.9665021316   -3.4252023979    1.6101538125
H       -1.8844041797   -2.3238554634    2.6311424859
H       -1.7037241222   -1.9770758067    0.9009900996
H        0.0228619683   -0.7368182078   -2.1121684280
H       -0.0781944646   -2.1108840779   -0.9952967164
H        1.4742652658   -1.3073624514   -1.2697140447
19   
torsion grid (-60,)
C        0.5131440739   -0.5495405503    1.3923831323
C        0.0516946216   -1.5911026602    2.1013608597
C        0.2306749661    1.3095411333   -0.3637782593
C       -1.1532527724    0.7550464602   -0.0983136490
C        0.0707291647   -0.1465304767    0.0141752966
C       -1.0887431722   -2.4983641912    1.7223070808
C        0.2722219308   -1.1834929839   -1.0835784628
H        1.3341124401    0.0278640132    1.8193547136
H        0.5208642749   -1.7932205645    3.0644202116
H        0.4993220163    1.5446271439   -1.3902870095
H        0.6550733388    1.9823227264    0.3772966383
H       -1.6513179010    1.0473902129    0.8211691552
H       -1.8167624952    0.6048351593   -0.9464052976
H       -0.7264450312   -3.4806606074    1.3913797960
H       -1.7394184587   -2.6765725900    2.5863296593
H       -1.6981229239   -2.0744241700    0.9208203290
H       -0.0573390598   -0.7927014867   -2.0526989657
H       -0.2893229456   -2.1002369206   -0.8832454725
H        1.3307799608   -1.4534492755   -1.1718049897
19   
torsion grid (-45,)
C        0.3629682618   -0.4790476298    1.4381521617
C        0.0075721990   -1.5744605663    2.1284509200
C        0.3443715073    1.2965558868   -0.4081583722
C       -1.0990652075    0.9256171471   -0.1574846503
C        0.0026702616   -0.1156392203    0.0278298135
C       -0.9417781711   -2.6656259991    1.7012296281
C        0.1107962498   -1.2031775822   -1.0330843802
H        1.0295892371    0.2220233863    1.9417203011
H        0.4250653538   -1.6802327720    3.1296327449
H        0.6632934061    1.4475482724   -1.4358607832
H        0.8330956476    1.9466551256    0.3130500243
H       -1.5800015456    1.3148069043    0.7348146522
H       -1.7579319305    0.8124351979   -1.0148163279
H       -0.4120301774   -3.5115729998    1.2440785641
H       -1.4821072426   -3.0592249063    2.5687759653
H       -1.6818600609   -2.3061076536    0.9822765865
H       -0.0668205645   -0.7845398037   -2.0295971926
H       -0.6125465083   -2.0075931438   -0.8811855421
H        1.1126113125   -1.6470892716   -1.0289393472
19   
torsion grid (-30,)
C        0.1886345261   -0.4227722782    1.4723171010
C       -0.0746755604   -1.5487275497    2.1566878699
C        0.4680309236    1.2535177729   -0.4301453350
C       -1.0164159027    1.0838469090   -0.2186634383
C       -0.0737936909   -0.0900129805    0.0386112653
C       -0.7641379665   -2.8068465346    1.6792864065
C       -0.0677992619   -1.2108063350   -0.9908539942
H        0.6596192861    0.3822395276    2.0380095072
H        0.2361733977   -1.5558760802    3.2008012745
H        0.8370593384    1.3200326437   -1.4498018071
H        1.0187054288    1.8584990236    0.2851131104
H       -1.4712433549    1.5646067249    0.6423309252
H       -1.6587514361    1.0231279542   -1.0935477891
H       -0.1004113189   -3.4401704176    1.0785156797
H       -1.0946023972   -3.4052782640    2.5335154220
H       -1.6460910200   -2.5868014649    1.0715298765
H       -0.1076613808   -0.7968952564   -2.0038582898
H       -0.9220124566   -1.8830766517   -0.8800070464
H        0.8472648743   -1.8072763711   -0.9089559721
19   
torsion grid (-15,)
C        0.0697535290   -0.4156393308    1.4502155011
C       -0.0696893738   -1.5587057714    2.1446639075
C        0.5366018258    1.1978423648   -0.4558037378
C       -0.9513335445    1.2220123458   -0.2129144454
C       -0.1708878596   -0.0696958847    0.0191009430
C       -0.5026650382   -2.9370241225    1.7174019074
C       -0.3408227328   -1.1614769666   -1.0234196605
H        0.3853821442    0.4466081142    2.0403645868
H        0.1711870758   -1.4889859033    3.2063271137
H        0.8904179910    1.2179696270   -1.4827505905
H        1.1797646196    1.7178676404    0.2484027807
H       -1.3227035841    1.7532853220    0.6584411048
H       -1.6140190705    1.2520242101   -1.0737767845
H        0.2704253866   -3.6741175747    1.9693711671
H       -1.4056227999   -3.2340852033    2.2664774084
H       -0.7156611897   -3.0256903087    0.6543498760
H       -0.3682842533   -0.7244237121   -2.0269766216
H       -1.2754689298   -1.7142705983   -0.8862229071
H        0.4915178323   -1.8721638759   -0.9923667829
19   
torsion grid (0,)
C       -0.0851554751   -0.3925333788    1.4730401595
C       -0.1341719053   -1.5515337313    2.1535413216
C        0.6161476714    1.1239377689   -0.4422039784
C       -0.8699776216    1.2968843844   -0.2562013658
C       -0.2278646386   -0.0596480516    0.0273180564
C       -0.3565196630   -2.9703918103    1.6974277812
C       -0.4828521065   -1.1473078563   -1.0006013935
H        0.0950020848    0.4931059768    2.0853078052
H        0.0123781181   -1.4617930064    3.2308038700
H        1.0074732753    1.0842293305   -1.4550499802
H        1.2825117719    1.5908858754    0.2771946468
H       -1.2181963705    1.8822850540    0.5897837554
H       -1.4942473127    1.3751319088   -1.1420708327
H        0.5000787410   -3.5961459787    1.9793700720
H       -1.2320973614   -3.3967686197    2.2037172610
H       -0.5075099278   -3.0752699559    0.6254112055
H       -0.5561238117   -0.7099752166   -2.0017700813
H       -1.4218840465   -1.6744036111   -0.8032022596
H        0.3309006065   -1.8793587098   -1.0209312771
19   
torsion grid (15,)
C       -0.2411699733   -0.3794164340    1.4892837793
C       -0.1990112531   -1.5436750741    2.1608797032
C        0.6867783136    1.0314844455   -0.4184564740
C       -0.7812080904    1.3511755242   -0.2905193539
C       -0.2845994826   -0.0563740322    0.0334700671
C       -0.2065383777   -2.9714812003    1.6801581205
C       -0.6252450757   -1.1283909738   -0.9875834077
H       -0.2003448153    0.5147344359    2.1139462363
H       -0.1519393435   -1.4515000787    3.2468343957
H        1.1086457585    0.9352098863   -1.4154051851
H        1.3696155600    1.4403275086    0.3204708225
H       -1.0986259202    1.9829728650    0.5341395546
H       -1.3606721555    1.4796408800   -1.2004196113
H        0.7119002885   -3.4804356458    2.0003069656
H       -1.0406480139   -3.5215764938    2.1341644681
H       -0.2853205201   -3.0757928216    0.6002421891
H       -0.7449125520   -0.6807031010   -1.9796233697
H       -1.5634517463   -1.6329303146   -0.7345456783
H        0.1646394271   -1.8819390033   -1.0664584558
19   
torsion grid (30,)
C        0.6343234758    0.0878476429    1.4053044889
C        1.8784099983   -0.1717869408    1.8415463905
C       -0.4605191129    1.4248831329   -0.4908000227
C       -1.4120228395    0.3208318980   -0.0998904411
C        0.0890709965    0.0920340374    0.0132576431
C        3.1157647871   -0.4947487964    1.0348280421
C        0.7048022008   -0.8381885449   -1.0219142396
H       -0.0985718814    0.3422121243    2.1721415570
H        2.0234777473   -0.1317847814    2.9205293113
H       -0.3340214182    1.6471546114   -1.5473513776
H       -0.3758480638    2.2865798997    0.1646550791
H       -1.9800975702    0.4393415283    0.8188493026
H       -1.9434052395   -0.2025996912   -0.8897989132
H        4.0132171226   -0.3528469424    1.6443122326
H        3.1229944009   -1.5344367178    0.6861773490
H        3.2115793541    0.1469451617    0.1546663561
H        0.1003500213   -0.8443181267   -1.9349801493
H        0.7486494892   -1.8649329277   -0.6428389330
H        1.7167118566   -0.5369804725   -1.3033860302
19   
torsion grid (45,)
C        0.5818154324   -0.0884993079    1.4364166794
C        1.8494971139   -0.2579346155    1.8450994269
C       -0.2723103626    1.4141255919   -0.4791291489
C       -1.3779782246    0.4470895373   -0.1237969537
C        0.0679535900    0.0152652381    0.0306895869
C        3.0972854528   -0.2704601319    0.9981769514
C        0.5958475133   -0.9829296982   -0.9915150397
H       -0.1834855526   -0.0618456181    2.2129957962
H        2.0084536557   -0.3686508840    2.9176332540
H       -0.0896658697    1.6236932811   -1.5301531616
H       -0.0908524080    2.2515889482    0.1877209125
H       -1.9496086195    0.6409548845    0.7802402606
H       -1.9550633468    0.0089724243   -0.9335582167
H        3.9381633548    0.1557727495    1.5556432071
H        3.3870049810   -1.2903665899    0.7133853413
H        2.9756917572    0.3113694943    0.0813646946
H        0.0619719371   -0.8757454952   -1.9419520845
H        0.4497443230   -2.0098253408   -0.6381697354
H        1.6604005978   -0.8473683726   -1.1957841244
19   
torsion grid (60,)
C        0.5495437584   -0.2569137104    1.4463278599
C        1.8323965611   -0.3084014027    1.8362935197
C       -0.0891413007    1.3736129146   -0.4600388335
C       -1.3181210961    0.5540934735   -0.1265641446
C        0.0547957753   -0.0586342628    0.0414999107
C        3.0415951455   -0.0551301556    0.9754210662
C        0.4841018228   -1.1099494791   -0.9740632428
H       -0.2155688958   -0.4409109012    2.2016008510
H        2.0322194350   -0.5244777449    2.8859775453
H        0.1288165067    1.5678835480   -1.5073326825
H        0.1872081695    2.1760147142    0.2172825309
H       -1.8702892921    0.8160302836    0.7725666259
H       -1.9372887303    0.2032906346   -0.9479811534
H        3.7623861150    0.5786721863    1.5049728354
H        3.5625615600   -0.9903068205    0.7310503631
H        2.7784318808    0.4408980493    0.0383226970
H        0.0579954260   -0.8946023288   -1.9602602289
H        0.1414922357   -2.1054360432   -0.6693879479
H        1.5717302482   -1.1505268601   -1.0803799258
19   
torsion grid (75,)
C        0.5496610106   -0.4019541772    1.4185834035
C        1.8246418514   -0.3276866505    1.8286783225
C        0.0567866606    1.3251266620   -0.4549915723
C       -1.2482700555    0.6359171586   -0.1077529936
C        0.0572651757   -0.1158756673    0.0284268429
C        3.0013609132    0.1162841826    1.0025638631
C        0.3611486591   -1.2013421060   -0.9961811139
H       -0.1982806129   -0.7533673155    2.1307461563
H        2.0448603541   -0.6070568696    2.8594907479
H        0.2745037932    1.5097779895   -1.5041163639
H        0.4229994504    2.0878064266    0.2256200249
H       -1.7531372191    0.9461755697    0.8036347213
H       -1.9153712400    0.3619268905   -0.9210152392
H        3.5622489647    0.9054689837    1.5183625708
H        3.7015516701   -0.7139998189    0.8432050929
H        2.6963243816    0.4960410883    0.0254143798
H       -0.0464777044   -0.9402933313   -1.9792799436
H       -0.0778322735   -2.1585399754   -0.6921480852
H        1.4408815457   -1.3492029450   -1.1039331684
19   
torsion grid (90,)
C        0.5828586369   -0.5247120360    1.3604143691
C        1.8286364356   -0.3388636701    1.8217452545
C        0.1728000419    1.2703371014   -0.4785016439
C       -1.1710967950    0.6955255927   -0.0745208122
C        0.0736210210   -0.1664461484   -0.0048627922
C        2.9847343537    0.2697730106    1.0748951546
C        0.2192820553   -1.2729369442   -1.0412094735
H       -0.1374292089   -1.0159402992    2.0168309789
H        2.0449848325   -0.6675693918    2.8389788793
H        0.3572802317    1.4473535221   -1.5353059305
H        0.6283260926    1.9968937991    0.1872682846
H       -1.6033525196    1.0409635020    0.8608983029
H       -1.8956517688    0.4842093218   -0.8568298691
H        3.3530473446    1.1689743765    1.5855143889
H        3.8255303694   -0.4340257108    1.0347435854
H        2.7191097051    0.5408615613    0.0518215435
H       -0.2123712472   -0.9743662300   -2.0031451084
H       -0.2903949876   -2.1858237834   -0.7117453943
H        1.2749507318   -1.5190014788   -1.2016820718
19   
torsion grid (105,)
C        0.6405107592   -0.6304921441    1.2860966929
C        1.8411624142   -0.3483908774    1.8144806289
C        0.2672077153    1.2131679201   -0.5274560621
C       -1.0855436146    0.7372109277   -0.0370809178
C        0.1005562689   -0.2131726542   -0.0472660613
C        2.9722882708    0.4084700363    1.1698786339
C        0.0735740229   -1.3264724923   -1.0861790883
H       -0.0427514402   -1.2391985897    1.8816761557
H        2.0442762829   -0.7248681394    2.8178307922
H        0.3974413555    1.3786931395   -1.5940405619
H        0.8054666941    1.9119368849    0.1043467875
H       -1.4286958326    1.1108278547    0.9237188569
H       -1.8729383004    0.5746266857   -0.7687335370
H        3.1474162255    1.3683755388    1.6737461097
H        3.9037215125   -0.1640792180    1.2554098748
H        2.7915713019    0.6049914175    0.1122725738
H       -0.3982282947   -0.9904249700   -2.0161790014
H       -0.4909612348   -2.1903176840   -0.7158838876
H        1.0887912188   -1.6656775414   -1.3213303429
19   
torsion grid (120,)
C        0.7158629563   -0.7236977093    1.2008399638
C        1.8589958778   -0.3615605332    1.8042603306
C        0.3443110359    1.1574091629   -0.5956784592
C       -0.9917981110    0.7680201430    0.0006680984
C        0.1344498423   -0.2554728812   -0.0948108890
C        2.9516102320    0.5319100152    1.2751348466
C       -0.0664546537   -1.3636029272   -1.1203494871
H        0.0785161624   -1.4337008743    1.7325091431
H        2.0493050832   -0.7900293215    2.7889213554
H        0.4024229759    1.3077739311   -1.6707212384
H        0.9620127888    1.8341714237   -0.0166945370
H       -1.2342117165    1.1632533110    0.9828733340
H       -1.8426373551    0.6459080842   -0.6648381769
H        2.9359039220    1.5183045772    1.7582247627
H        3.9311652950    0.0917082494    1.4944649172
H        2.8835356979    0.6795492740    0.1966149285
H       -0.5806463328   -0.9907320398   -2.0128143821
H       -0.6713131858   -2.1754084639   -0.6992525944
H        0.8938348102   -1.7885973262   -1.4340442705
19   
torsion grid (135,)
C        0.8040544345   -0.8114373263    1.1064687880
C        1.8829137666   -0.3888312802    1.7858283168
C        0.4186820212    1.0970011084   -0.6820955377
C       -0.8801136700    0.8017367138    0.0351448182
C        0.1685763182   -0.2958249317   -0.1430631393
C        2.9053030805    0.6485700253    1.3899778751
C       -0.2048683130   -1.3887228310   -1.1367299601
H        0.2286901136   -1.6186088634    1.5656125717
H        2.0759992108   -0.8849509227    2.7371657659
H        0.3901651136    1.2240300314   -1.7611781834
H        1.1216801804    1.7474757812   -0.1774782681
H       -1.0056464470    1.2183977746    1.0300098440
H       -1.7943955878    0.7255638538   -0.5479533749
H        2.6733301751    1.6347543423    1.8147626198
H        3.8916257339    0.3656002262    1.7728225890
H        2.9874658565    0.7584281838    0.3074706233
H       -0.7563350547   -0.9790368433   -1.9895703931
H       -0.8397636365   -2.1442835319   -0.6590360347
H        0.6875020291   -1.8946554154   -1.5228512748
19   
torsion grid (150,)
C        0.9176416028   -0.9157956892    0.9899353731
C        1.9496951885   -0.4601190457    1.7204799820
C        0.5082450273    1.0126489177   -0.7857767975
C       -0.7195410400    0.8667574130    0.0831358874
C        0.1843352162   -0.3384310670   -0.1761482668
C        2.7902197099    0.7824284348    1.5219070143
C       -0.3798025468   -1.3965681126   -1.1154912668
H        0.4806257691   -1.8573747870    1.3282519426
H        2.2338356046   -1.0792486957    2.5704364603
H        0.3624517019    1.1095907095   -1.8584048268
H        1.3340084375    1.5938729702   -0.3992260368
H       -0.6872913855    1.3051198603    1.0760932111
H       -1.6985403335    0.8755972147   -0.3892536062
H        2.2213250882    1.7038359279    1.6966945566
H        3.6305530031    0.7877121547    2.2217994968
H        3.2058094692    0.8387523718    0.5113362413
H       -0.9702673311   -0.9416030771   -1.9174459559
H       -1.0321900742   -2.0916559312   -0.5737056196
H        0.4237522177   -1.9803134742   -1.5793101432
19   
torsion grid (165,)
C        1.0595906375   -0.9940482916    0.8422833995
C        2.0643904672   -0.5058162718    1.5905436653
C        0.5718588731    0.9100164721   -0.9148441974
C       -0.5390687374    0.9426684360    0.1092280155
C        0.1766107543   -0.3683859093   -0.1922722175
C        2.6256097588    0.8925658880    1.6801843692
C       -0.5774578089   -1.3935960031   -1.0277373108
H        0.8502514021   -2.0551446227    0.9846000809
H        2.5519202799   -1.2243799608    2.2493644594
H        0.2937849831    0.9814550952   -1.9631615708
H        1.5211481011    1.3740525279   -0.6779649037
H       -0.3419035964    1.4076464491    1.0701578824
H       -1.5613358858    1.0524099079   -0.2437395689
H        1.9317734384    1.6663133411    1.3491838502
H        2.8991080627    1.1190899901    2.7167114291
H        3.5434328952    0.9891892093    1.0850040223
H       -1.2289491312   -0.9068326979   -1.7605417411
H       -1.2058188228   -2.0335621693   -0.3966436676
H        0.1199196540   -2.0384352954   -1.5750483503
19   
torsion grid (180,)
C        1.1802544424   -1.0178963806    0.7124304535
C        2.1203629243   -0.5071414263    1.5270513606
C        0.5853788862    0.8704064106   -1.0128694696
C       -0.4314767873    0.9626738379    0.1012521181
C        0.2073219254   -0.3789616365   -0.2298138198
C        2.5335198121    0.9198959105    1.7822240115
C       -0.6757600030   -1.3882477616   -0.9500381762
H        1.0968874197   -2.1052469003    0.7288520965
H        2.6875888158   -1.2364069539    2.1061881021
H        0.2268628010    0.9413422813   -2.0365670151
H        1.5737307179    1.2886583114   -0.8570894536
H       -0.1496343353    1.4452564284    1.0306189229
H       -1.4751053581    1.0952859157   -0.1722909718
H        1.9727927617    1.6582477694    1.2102737760
H        2.4172411448    1.1638620077    2.8459535452
H        3.5972467590    1.0541386526    1.5475820584
H       -1.3683129988   -0.8912218196   -1.6367921599
H       -1.2722782480   -1.9681737560   -0.2357914682
H       -0.0717553547   -2.0912647959   -1.5358662650
