27   
torsion grid (-165,)
C        0.5714388829    0.3248216924   -0.4642608107
C       -0.5188810459   -0.4470433776    0.3199383772
C        0.2420370208   -1.1906856998    1.4433032521
C       -1.4808682328    0.6089999151    0.9115807227
C       -1.3006064637   -1.4261664658   -0.5966169979
C       -1.1471061420   -1.1931583238   -2.0901998910
C       -2.1233002809   -2.4064812713   -0.1569268240
C       -2.7861838140   -3.3999361976   -1.1013906571
C       -2.5409895251   -2.6639718097    1.2782688400
H        0.1583551865    0.9829239467   -1.2327994666
H        1.2852745798   -0.3529615140   -0.9434452146
H        1.1345770126    0.9562247880    0.2309874485
H       -0.4091008585   -1.7042523754    2.1486825018
H        0.9177776281   -1.9375272404    1.0126688989
H        0.8485283332   -0.4797858825    2.0166345383
H       -2.2559051512    0.1620572463    1.5382796396
H       -1.9841777544    1.1604646435    0.1096283423
H       -0.9290608455    1.3337515570    1.5227399332
H       -1.9003270028   -1.7205569754   -2.6742000979
H       -0.1593788224   -1.4876091657   -2.4658644833
H       -1.2656258379   -0.1307803848   -2.3263825252
H       -2.1793032405   -3.6405105227   -1.9762377985
H       -3.7599148578   -3.0342865057   -1.4559884475
H       -2.9785418857   -4.3410829382   -0.5744794558
H       -3.6094586909   -2.9126811301    1.2991148503
H       -2.3952703380   -1.8217820001    1.9505339252
H       -2.0128827812   -3.5303294854    1.6985841396
27   
torsion grid (-150,)
C        0.7064451584    0.5882967821   -0.3671629312
C       -0.3915513769   -0.2495177139    0.3326190665
C        0.3479016004   -1.0624986094    1.4227529302
C       -1.3785648399    0.7576222356    0.9673178580
C       -1.1308250872   -1.1865939246   -0.6593347064
C       -0.8685947076   -0.9675879085   -2.1433665031
C       -1.9943912720   -2.1638530876   -0.2985583160
C       -2.6063752441   -3.1026291921   -1.3288243703
C       -2.4997803127   -2.4735378678    1.0960926169
H        0.2954764632    1.3370449316   -1.0502722766
H        1.4068115316   -0.0387961534   -0.9281243447
H        1.2826793721    1.1298284096    0.3905146607
H       -0.3132833361   -1.6778871816    2.0311819283
H        1.0848959718   -1.7287676675    0.9611611007
H        0.8837001877   -0.3855095008    2.0986550878
H       -2.1562360770    0.2709801260    1.5592241924
H       -1.8776979038    1.3439671969    0.1880364168
H       -0.8443811592    1.4557555849    1.6235730354
H       -1.7311198920   -1.2413979885   -2.7533003371
H       -0.0063406050   -1.5445143070   -2.5047094422
H       -0.6581981868    0.0795161929   -2.3656024497
H       -1.9208526484   -3.3535599807   -2.1414594243
H       -3.5132158033   -2.6744134793   -1.7784706253
H       -2.9052639105   -4.0425000948   -0.8524734392
H       -3.5842106739   -2.6383393696    1.0563101188
H       -2.3193882180   -1.6938401594    1.8316330596
H       -2.0593792760   -3.4054589244    1.4756989837
27   
torsion grid (-135,)
C        0.6092661707    0.4995763559   -0.4141041761
C       -0.4424425262   -0.3537392012    0.3332155654
C        0.3507092236   -1.1305046189    1.4126876832
C       -1.4310247260    0.6437385327    0.9823083149
C       -1.1930974824   -1.3301689222   -0.6111059252
C       -0.9626553347   -1.2020583130   -2.1136651478
C       -2.0567422608   -2.2869928602   -0.1977721595
C       -2.7034586742   -3.2337573105   -1.1976253205
C       -2.5296669252   -2.5607427822    1.2148376441
H        0.1549389939    1.2101636289   -1.1112643532
H        1.3228440453   -0.1185197384   -0.9687513528
H        1.1785835438    1.0863127115    0.3147471970
H       -0.2761656985   -1.7584310771    2.0446365690
H        1.0940568248   -1.7807121595    0.9386215298
H        0.8844395628   -0.4302624463    2.0663297813
H       -2.1828708862    0.1535766852    1.6031873851
H       -1.9623968529    1.2088700208    0.2087966774
H       -0.8915479807    1.3612862244    1.6127351040
H       -1.9052189909   -1.2508641379   -2.6671043542
H       -0.3183122641   -2.0033037327   -2.4998307014
H       -0.4909937881   -0.2609636093   -2.3898432021
H       -2.0186296879   -3.5501179708   -1.9888747800
H       -3.5729136890   -2.7710367450   -1.6854665638
H       -3.0648621316   -4.1363848098   -0.6942330107
H       -3.6217734680   -2.6716322126    1.2156000857
H       -2.2826954083   -1.7904293772    1.9403390703
H       -2.1224127380   -3.5123888261    1.5825354762
27   
torsion grid (-120,)
C        0.3958584503    0.3876858605   -0.3930391235
C       -0.5538222793   -0.5619792275    0.3720539615
C        0.3358543953   -1.3219930737    1.3858568419
C       -1.5681721341    0.3544246141    1.0991273920
C       -1.2891529379   -1.5580156690   -0.5643139052
C       -1.0006021342   -1.5129526966   -2.0610388638
C       -2.1836653027   -2.4859183851   -0.1478801428
C       -2.8470862985   -3.4118906100   -1.1569684481
C       -2.6509647996   -2.7612135442    1.2654545825
H       -0.1351624258    1.0053964806   -1.1244837812
H        1.1948997785   -0.1520549742   -0.9113525560
H        0.8736011773    1.0672971532    0.3208748202
H       -0.2270829219   -2.0003682866    2.0275608721
H        1.0853658756   -1.9198378806    0.8559453364
H        0.8668532182   -0.6132357027    2.0329318625
H       -2.2790843594   -0.1949255051    1.7166382582
H       -2.1465739142    0.9305578784    0.3687121510
H       -1.0418984801    1.0652463464    1.7477371533
H       -1.9094243251   -1.2985973234   -2.6371074218
H       -0.6285765570   -2.4787869602   -2.4243772602
H       -0.2640279554   -0.7643231520   -2.3414930416
H       -2.1161342276   -4.0445357697   -1.6760513666
H       -3.3894363545   -2.8574512979   -1.9322537513
H       -3.5647302745   -4.0770922550   -0.6681372397
H       -3.7387880855   -2.6256301033    1.3326842654
H       -2.1954283166   -2.1441544811    2.0342178501
H       -2.4546011972   -3.8103391880    1.5240205570
27   
torsion grid (-105,)
C        0.0566319702    0.3053032010   -0.4425970285
C       -0.7338746047   -0.5589414139    0.5677637438
C        0.3198271219   -1.2900410799    1.4330791507
C       -1.5499002401    0.4454441919    1.4180447876
C       -1.6703972850   -1.5797731077   -0.1318129266
C       -1.5653064726   -1.7348477953   -1.6455947275
C       -2.5744552634   -2.3575024100    0.5085006725
C       -3.4890361576   -3.2889617063   -0.2729459269
C       -2.8136722557   -2.4631281452    2.0003209560
H       -0.6024414869    0.8172658442   -1.1513686328
H        0.7875192419   -0.2773223221   -1.0115959268
H        0.6148841813    1.0739891417    0.1024557334
H       -0.1249290574   -1.8795811617    2.2365741485
H        0.9111612819   -1.9733728233    0.8138659550
H        1.0081522498   -0.5676458787    1.8888174350
H       -2.1394012641   -0.0279542129    2.2023242147
H       -2.2425220343    1.0040637362    0.7790641907
H       -0.8783498486    1.1674246438    1.8978761174
H       -2.4067743152   -1.2543739929   -2.1633759464
H       -1.5839480590   -2.7890820068   -1.9380731666
H       -0.6523770491   -1.3094964502   -2.0570687330
H       -2.9762474237   -4.2220742892   -0.5454949677
H       -3.8606775850   -2.8417335674   -1.1989263901
H       -4.3591007903   -3.5688338461    0.3297334108
H       -3.7876035214   -2.0313687062    2.2681668312
H       -2.0580114485   -1.9911577558    2.6223106546
H       -2.8565923936   -3.5222032761    2.2859052513
27   
torsion grid (-90,)
C        0.1429479303    0.4010406502   -0.4347304562
C       -0.6314086970   -0.5118236654    0.5469833705
C        0.4313897650   -1.2459912092    1.3973409896
C       -1.4737096253    0.4488519119    1.4209887688
C       -1.5371330720   -1.5305978809   -0.1949215332
C       -1.3572733310   -1.6482254263   -1.7026595910
C       -2.4593248736   -2.3200320744    0.4028230065
C       -3.3729043888   -3.2267857045   -0.4101510780
C       -2.7249973583   -2.4591869078    1.8881017059
H       -0.5237400141    0.8987410931   -1.1462278110
H        0.9055456699   -0.1403835345   -1.0018738304
H        0.6612110727    1.1811621464    0.1329232869
H       -0.0081430035   -1.8625555965    2.1837432706
H        1.0368680823   -1.9039148908    0.7643247154
H        1.1056316669   -0.5239469896    1.8742623874
H       -2.0520163747   -0.0580913701    2.1922059231
H       -2.1786117569    1.0072479265    0.7953167249
H       -0.8204650091    1.1740443322    1.9206469010
H       -2.0095326237   -0.9547758391   -2.2516259809
H       -1.5907523581   -2.6531228801   -2.0593293030
H       -0.3337828455   -1.4362975279   -2.0128620955
H       -2.8904312466   -4.1870839394   -0.6400210540
H       -3.6875718658   -2.7805058512   -1.3565054219
H       -4.2797684497   -3.4581046766    0.1585443599
H       -3.6816255656   -1.9931836522    2.1606549797
H       -1.9546043176   -2.0431699643    2.5320872405
H       -2.8180170593   -3.5239235054    2.1380964792
27   
torsion grid (-75,)
C        0.1260147355    0.2943816203   -0.4823166953
C       -0.6077820446   -0.5944546851    0.5524468439
C        0.4834730776   -1.3333124951    1.3612424386
C       -1.3896287214    0.3925818774    1.4517424252
C       -1.5524756901   -1.6175796084   -0.1336597757
C       -1.3483748302   -1.8097382609   -1.6274032384
C       -2.4881750817   -2.3555535822    0.5073690176
C       -3.4505924948   -3.2713080121   -0.2373814384
C       -2.7204868789   -2.4272525322    2.0041635153
H       -0.5746847238    0.8275114612   -1.1327834585
H        0.8156971764   -0.2702584104   -1.1149748979
H        0.7194292223    1.0468833757    0.0475943213
H        0.0674673536   -1.9412257299    2.1675610006
H        1.0564707295   -2.0012280755    0.7085116285
H        1.1840250085   -0.6163464603    1.8067610462
H       -1.8979891947   -0.0849157852    2.2878500650
H       -2.1472903914    0.9211702017    0.8631133463
H       -0.7054111241    1.1411309209    1.8683485777
H       -1.7416469692   -0.9711115705   -2.2161900566
H       -1.8231281055   -2.7184333291   -1.9962588541
H       -0.2850442657   -1.8943055942   -1.8693229090
H       -3.0247296694   -4.2734009158   -0.3854323750
H       -3.7468254336   -2.8859102436   -1.2150614724
H       -4.3671091261   -3.4036634207    0.3478087841
H       -3.6258011527   -1.8762918857    2.2925291584
H       -1.8959341923   -2.0604873227    2.6104537669
H       -2.8911500584   -3.4732086957    2.2888763991
27   
torsion grid (-60,)
C        0.1978085683    0.3410636233   -0.4678547546
C       -0.5912020833   -0.5475988582    0.5247592435
C        0.4630233068   -1.3008406018    1.3703472792
C       -1.4046967542    0.4376039044    1.3972704983
C       -1.5136033965   -1.5600128858   -0.2075856799
C       -1.2897709586   -1.6897576626   -1.7032375442
C       -2.4408878742   -2.3372549962    0.3988758055
C       -3.3609225620   -3.2687493608   -0.3831527974
C       -2.7014225146   -2.4449063849    1.8885759634
H       -0.4656359923    0.9436591026   -1.0961592701
H        0.8558922248   -0.2366562974   -1.1223265861
H        0.8296709830    1.0344765170    0.0972123094
H        0.0148637915   -1.9291509268    2.1422975205
H        1.0698692734   -1.9511222291    0.7304883553
H        1.1381037837   -0.5911186145    1.8639809189
H       -1.9501880469   -0.0431687650    2.2082584230
H       -2.1354292340    0.9723913010    0.7809474167
H       -0.7353137829    1.1812945569    1.8458977303
H       -1.4442416238   -0.7435649689   -2.2329923594
H       -1.9338520694   -2.4369362044   -2.1636232738
H       -0.2565208608   -1.9939401411   -1.9113138755
H       -2.8542047254   -4.2013751624   -0.6646826529
H       -3.7542815580   -2.8164105155   -1.2968659672
H       -4.2224579339   -3.5500949619    0.2308925514
H       -3.6655059033   -1.9879134856    2.1499714765
H       -1.9384194625   -2.0012999174    2.5220703590
H       -2.7770290549   -3.5045432141    2.1645321570
27   
torsion grid (-45,)
C        0.4423270069    0.3599182548   -0.3708425559
C       -0.5922504665   -0.3527904133    0.5352965004
C        0.2479677059   -1.0959398000    1.6010978373
C       -1.4556120534    0.7531782712    1.1851704073
C       -1.4905135302   -1.3282156111   -0.2719575447
C       -1.4562535779   -1.1621570201   -1.7820030625
C       -2.3098907352   -2.2558743469    0.2750614955
C       -3.0939900031   -3.2491523742   -0.5722191156
C       -2.6072518652   -2.4488643771    1.7495740424
H       -0.0210353928    1.0200403058   -1.1085290230
H        1.0786052711   -0.3538686392   -0.9037861487
H        1.0956317578    0.9813776286    0.2505757981
H       -0.3500650703   -1.5799737715    2.3714838293
H        0.8630676279   -1.8682140280    1.1265952474
H        0.9214932827   -0.3917209522    2.1035384916
H       -2.1797495714    0.3534115506    1.8983793087
H       -2.0166017187    1.2999035211    0.4190817019
H       -0.8219599180    1.4740503030    1.7163145458
H       -1.5220619567   -0.1053573206   -2.0577166311
H       -2.2839014117   -1.6680609747   -2.2774436901
H       -0.5236819114   -1.5370316244   -2.2229898327
H       -2.5660083050   -3.5610182218   -1.4755181418
H       -4.0691178104   -2.8430659305   -0.8750555179
H       -3.2987667924   -4.1544654721    0.0096326630
H       -3.6818627083   -2.6317702594    1.8756027806
H       -2.3505892358   -1.6007982895    2.3796707140
H       -2.0937309952   -3.3349621125    2.1463081859
27   
torsion grid (-30,)
C        0.6095994624    0.5226972793   -0.2706015562
C       -0.4567626545   -0.2514922264    0.5421092072
C        0.3408079792   -1.0757157316    1.5816921271
C       -1.3388619039    0.8117227496    1.2371521100
C       -1.3209900155   -1.1741613328   -0.3581283212
C       -1.1762228831   -1.0049618723   -1.8645767025
C       -2.1941302015   -2.1003624093    0.1009865634
C       -2.9359852402   -3.0305005131   -0.8487701353
C       -2.5895770529   -2.3554619549    1.5413889875
H        0.1716610804    1.2754556536   -0.9323241075
H        1.2306672395   -0.1455270924   -0.8757273115
H        1.2728940300    1.0530458728    0.4208907879
H       -0.2897375513   -1.6519231967    2.2573391444
H        1.0072009615   -1.7806547393    1.0726305022
H        0.9604102979   -0.4103709342    2.1946191550
H       -2.0810648365    0.3730960875    1.9068934629
H       -1.8795225445    1.4042426089    0.4909755372
H       -0.7184717987    1.4979553605    1.8267378233
H       -0.9178093977    0.0186853244   -2.1375241690
H       -2.0962635204   -1.2550135276   -2.3950973611
H       -0.3793459839   -1.6419793747   -2.2738406476
H       -2.3320895924   -3.3395742398   -1.7051087944
H       -3.8520434920   -2.5648470844   -1.2384745536
H       -3.2446403436   -3.9400582117   -0.3225527558
H       -3.6803624100   -2.4625669696    1.6005390565
H       -2.3044613101   -1.5730358258    2.2398864696
H       -2.1661846138   -3.3023886151    1.9028424672
27   
torsion grid (-15,)
C        0.6464187409    0.4967455041   -0.2045678925
C       -0.4191920906   -0.3400559858    0.5416752013
C        0.3716913983   -1.2031633497    1.5552002114
C       -1.3347098726    0.6718324520    1.2707473660
C       -1.2488224107   -1.2347928759   -0.4173644054
C       -1.0599085267   -1.0516755063   -1.9198434913
C       -2.1454760506   -2.1660855661   -0.0161398202
C       -2.8709327960   -3.0340369677   -1.0335014363
C       -2.5840327247   -2.4809189731    1.3989589319
H        0.2032405131    1.2581292900   -0.8536317201
H        1.3111599654   -0.1278083218   -0.8103301743
H        1.2669116827    1.0232276965    0.5285151059
H       -0.2631538459   -1.8294707367    2.1808088893
H        1.0653531695   -1.8651181554    1.0253618765
H        0.9614699885   -0.5603967338    2.2196380959
H       -2.0883029417    0.1895871264    1.8956441340
H       -1.8635200738    1.2973719953    0.5433578082
H       -0.7393113958    1.3323880679    1.9130213299
H       -0.5447879552   -0.1277731939   -2.1747126599
H       -2.0179335729   -1.0447063714   -2.4476346800
H       -0.4647828299   -1.8670681696   -2.3540550444
H       -2.2250997592   -3.3566951504   -1.8546325915
H       -3.7241443359   -2.5040470629   -1.4797213654
H       -3.2707715319   -3.9343240744   -0.5557693136
H       -3.6799151528   -2.5336670529    1.4349348259
H       -2.2705057802   -1.7602314459    2.1492774278
H       -2.2170352747   -3.4692221152    1.7076234829
27   
torsion grid (0,)
C        0.5827898359    0.6235606055   -0.0653490676
C       -0.4387830392   -0.3557291755    0.5563236621
C        0.3738184723   -1.2588005741    1.5161589685
C       -1.4442106026    0.5247104211    1.3380431850
C       -1.1744920906   -1.2121067169   -0.5090227885
C       -0.8324273677   -1.0109426836   -1.9814252110
C       -2.1164689842   -2.1440341571   -0.2283428981
C       -2.7738276314   -2.9267487992   -1.3557704336
C       -2.6491007171   -2.5512002328    1.1289174927
H        0.1097816859    1.3452146387   -0.7391310029
H        1.3745482351    0.1045733070   -0.6151402826
H        1.0642902283    1.1944809007    0.7358912971
H       -0.2436220711   -1.9750283502    2.0588197268
H        1.1204666479   -1.8305339461    0.9543559942
H        0.9048387511   -0.6474674900    2.2559251403
H       -2.2020023698   -0.0538319877    1.8669378231
H       -1.9677993205    1.1991733006    0.6517925050
H       -0.9170038591    1.1397615686    2.0774545248
H       -0.0720745195   -0.2533239530   -2.1533371613
H       -1.7159537997   -0.7131821623   -2.5595325689
H       -0.4663432186   -1.9394622844   -2.4367480345
H       -2.0432180214   -3.5001286427   -1.9395178559
H       -3.2956058060   -2.2704187531   -2.0630715979
H       -3.5091015450   -3.6363935046   -0.9656171489
H       -3.7359394317   -2.3972431968    1.1643277114
H       -2.2161733075   -2.0258402460    1.9749843993
H       -2.4847260289   -3.6255461573    1.2868221524
27   
torsion grid (15,)
C        0.9126638819    1.2664792498   -0.0502014633
C       -0.0168961217    0.1997974042    0.5748994906
C        0.8729762777   -0.6649818217    1.4989780109
C       -1.0613836509    0.9951288970    1.3959812590
C       -0.7114627514   -0.6825153871   -0.4964080036
C       -0.2734631235   -0.5324243936   -1.9497815083
C       -1.6777266842   -1.5931244134   -0.2329735716
C       -2.3381360137   -2.3722929742   -1.3605419184
C       -2.2244399873   -1.9989333123    1.1199427028
H        0.3883115619    1.8952766412   -0.7772258869
H        1.7855053692    0.8263186770   -0.5419350879
H        1.2889024062    1.9227855091    0.7418291135
H        0.3064803315   -1.4133843419    2.0556956838
H        1.6277051179   -1.1968471997    0.9094537714
H        1.3976144075   -0.0325937921    2.2257443749
H       -1.7725305769    0.3613064261    1.9243884938
H       -1.6364583483    1.6539754604    0.7362165335
H       -0.5579973789    1.6220440624    2.1416656632
H        0.6687187275    0.0010292596   -2.0575924778
H       -1.0140021421    0.0264132789   -2.5387476297
H       -0.1526661250   -1.5048639731   -2.4357781175
H       -1.7191006804   -3.2228018955   -1.6789770388
H       -2.5272931005   -1.7601196788   -2.2465034025
H       -3.2985788472   -2.7833741080   -1.0331626346
H       -3.2595430538   -1.6512357342    1.2398224225
H       -1.6530017001   -1.6433419330    1.9729844783
H       -2.2576278561   -3.0943525490    1.1831014989
27   
torsion grid (30,)
C        0.9944622084    1.3643412960   -0.0010715095
C        0.0899187264    0.2550693194    0.5890192405
C        0.9913793520   -0.6098333489    1.5005625369
C       -0.9837562892    1.0010203836    1.4179188725
C       -0.5640639071   -0.6153848539   -0.5169966845
C       -0.0550524868   -0.4258734603   -1.9396309320
C       -1.5380831811   -1.5299132821   -0.3026378180
C       -2.1913237784   -2.2771887517   -1.4570789867
C       -2.1081847954   -1.9694790245    1.0307106849
H        0.4649778463    1.9794074904   -0.7357534185
H        1.8963145737    0.9659794336   -0.4746861762
H        1.3242206135    2.0263047227    0.8066764323
H        0.4351466450   -1.3817960008    2.0357591241
H        1.7620281445   -1.1129618993    0.9063130195
H        1.4966891719    0.0172898652    2.2454044792
H       -1.6786007580    0.3363831845    1.9294090116
H       -1.5738662027    1.6561400756    0.7677318298
H       -0.5039024387    1.6271254469    2.1795019846
H        0.9932771277   -0.1265511127   -1.9621130754
H       -0.6099469502    0.3596303227   -2.4719694865
H       -0.1397074520   -1.3395765628   -2.5299582511
H       -1.6075862224   -3.1611975250   -1.7496061855
H       -2.3227591227   -1.6585112226   -2.3479768026
H       -3.1823048674   -2.6378422092   -1.1617309667
H       -3.1300820282   -1.5895202519    1.1646682702
H       -1.5245657333   -1.6732302438    1.8984290666
H       -2.1815087972   -3.0645528947    1.0464661426
27   
torsion grid (45,)
C        0.9097154589    1.3401347570   -0.0514968661
C        0.0585219725    0.2214970112    0.5992857734
C        1.0166420860   -0.6179921748    1.4757263373
C       -0.9829704103    0.9618759427    1.4718129377
C       -0.6205373666   -0.6801304175   -0.4665098950
C       -0.0794210145   -0.5540373993   -1.8808233951
C       -1.6020389740   -1.5754200695   -0.2090870799
C       -2.2954450801   -2.3618695492   -1.3136251261
C       -2.1431101390   -1.9635364558    1.1534270059
H        0.3151099655    1.9668314188   -0.7238519140
H        1.7638458306    0.9531054621   -0.6130319909
H        1.3097435691    1.9896337968    0.7341923876
H        0.4964299948   -1.4001891838    2.0328682583
H        1.7746089786   -1.1066931004    0.8534983680
H        1.5370494341    0.0218225711    2.1989834627
H       -1.6071608444    0.2979130378    2.0676018344
H       -1.6474822005    1.5614681166    0.8402891539
H       -0.4739248181    1.6421397059    2.1647196480
H        1.0147260912   -0.5497388860   -1.8786639264
H       -0.3891628120    0.3808098653   -2.3653945132
H       -0.3889524074   -1.3781297791   -2.5222781364
H       -1.7638037454   -3.2961632492   -1.5415336372
H       -2.4016248175   -1.8014003827   -2.2445299771
H       -3.3034830627   -2.6455607307   -0.9919901823
H       -3.1321304139   -1.5197232470    1.3298972263
H       -1.5010196710   -1.6982232233    1.9897501502
H       -2.2821778736   -3.0515594767    1.1850595058
27   
torsion grid (60,)
C        1.3092863740    1.5386119708    0.1587414866
C        0.1806078051    0.5743457263    0.5989860000
C        0.8301356687   -0.3653561966    1.6424179815
C       -0.9165871108    1.4522027756    1.2465235799
C       -0.4065302871   -0.2196255831   -0.5997733692
C        0.0146854314    0.2620621267   -1.9761668120
C       -1.2765576547   -1.2505531846   -0.4902485699
C       -1.7705550639   -2.0323191293   -1.7028937681
C       -1.9120857191   -1.7706646327    0.7842208642
H        0.9672385779    2.2930142391   -0.5547344244
H        2.1544891582    1.0049406374   -0.2872115024
H        1.6876906227    2.0713273892    1.0376022714
H        0.1266287545   -1.0519893310    2.1114750591
H        1.6136491627   -0.9683548140    1.1709095386
H        1.2955005156    0.2255509797    2.4403390738
H       -1.7496880523    0.8660466225    1.6388142884
H       -1.3269795365    2.1525465132    0.5105582594
H       -0.4999496366    2.0402538338    2.0733996053
H        1.0994603084    0.2172956733   -2.1212171504
H       -0.2720177286    1.3111957412   -2.1195275221
H       -0.4515610426   -0.3018711214   -2.7821820099
H       -0.9793915314   -2.2515249268   -2.4241485319
H       -2.5683545199   -1.4981027831   -2.2357630983
H       -2.1899795323   -2.9927811112   -1.3865859351
H       -2.9881842677   -1.9093925595    0.6185002650
H       -1.8008167969   -1.1244850251    1.6504477796
H       -1.5097235461   -2.7587884685    1.0456445417
27   
torsion grid (75,)
C        1.2770078037    1.4703595032    0.1161742795
C        0.1281298408    0.5529450774    0.6036715427
C        0.7670270040   -0.3600961627    1.6771816576
C       -0.9450039600    1.4739025036    1.2290644773
C       -0.4844517364   -0.2714835160   -0.5603892072
C       -0.1200418369    0.1892066030   -1.9621101349
C       -1.3304355931   -1.3161705781   -0.4054764091
C       -1.8204565512   -2.1461384879   -1.5846876440
C       -1.9375046751   -1.8090825095    0.8937582022
H        0.9361524372    2.2520709102   -0.5675516740
H        2.0693420018    0.9029347878   -0.3823730519
H        1.7262859741    1.9724684981    0.9794477568
H        0.0542871331   -1.0145755325    2.1763495462
H        1.5366411464   -0.9945280300    1.2242676939
H        1.2476882645    0.2512515000    2.4500069189
H       -1.7745617415    0.9136284596    1.6657519069
H       -1.3643637519    2.1427575360    0.4692846110
H       -0.5056538956    2.0957765963    2.0187127213
H        0.9066869481   -0.0819132841   -2.2395071885
H       -0.1935716166    1.2771329201   -2.0478921755
H       -0.7834306459   -0.2267347925   -2.7197902751
H       -1.0749572036   -2.2600725939   -2.3742395536
H       -2.7254071893   -1.7158256072   -2.0356455687
H       -2.0875098212   -3.1531407708   -1.2461662480
H       -2.9965954500   -2.0426811461    0.7265172300
H       -1.8918609860   -1.0986176980    1.7154323954
H       -1.4631453140   -2.7427010936    1.2248856197
27   
torsion grid (90,)
C        1.3636806935    1.4849701945    0.2128038255
C        0.2139020228    0.5357872840    0.6297215386
C        0.8390454798   -0.4362345454    1.6595572142
C       -0.8698727309    1.4198544985    1.2896536530
C       -0.3733952449   -0.2361932331   -0.5818275437
C        0.0707070398    0.2095767005   -1.9687399565
C       -1.2517131664   -1.2614039620   -0.4899604896
C       -1.7082439713   -2.0271736494   -1.7239954037
C       -1.9178764135   -1.7903182869    0.7640415251
H        1.0162489201    2.3294267540   -0.3892918892
H        2.1448288759    0.9626532648   -0.3488070788
H        1.8278546355    1.9036959125    1.1120384576
H        0.1273908996   -1.1495892211    2.0729105166
H        1.6470396178   -1.0106498612    1.1933450125
H        1.2671473942    0.1268616748    2.4973759306
H       -1.6995785978    0.8388174203    1.6967993366
H       -1.2874205711    2.1198291732    0.5576233074
H       -0.4377720705    2.0076596180    2.1089083875
H        0.9704414433   -0.3239496029   -2.3056172373
H        0.2993826510    1.2749669935   -2.0049955503
H       -0.7035082268    0.0300192104   -2.7170142550
H       -0.9155671790   -2.1587615745   -2.4642995917
H       -2.5494017686   -1.5262777363   -2.2233605117
H       -2.0590595215   -3.0253647027   -1.4413042276
H       -2.9867029803   -1.9425061457    0.5659460288
H       -1.8403974897   -1.1411260638    1.6322949433
H       -1.5117262916   -2.7731148851    1.0392483508
27   
torsion grid (105,)
C        1.1983460850    0.9968446712    0.1665553228
C        0.0708621472   -0.0002615845    0.5232285203
C        0.7140004788   -1.0166752577    1.4983898764
C       -1.0317309844    0.8239824180    1.2292597552
C       -0.5006870626   -0.7197881469   -0.7274546229
C       -0.0431511418   -0.2465248151   -2.1034282145
C       -1.3912041182   -1.7384197494   -0.6880636745
C       -1.8502509626   -2.4183803749   -1.9693321514
C       -2.0663775177   -2.3317262423    0.5309687376
H        0.8340301481    1.8546760433   -0.4068654265
H        2.0050808202    0.5211667246   -0.4006739733
H        1.6338124278    1.3915831417    1.0907605783
H        0.0168145690   -1.7707285783    1.8617789659
H        1.5380411901   -1.5428693883    1.0042699471
H        1.1235815904   -0.4952557452    2.3717961836
H       -1.8546829853    0.2076568918    1.5951250375
H       -1.4559368102    1.5605006125    0.5381499456
H       -0.6136009775    1.3675014923    2.0854716892
H        0.6735466576   -0.9450329453   -2.5566905061
H        0.4333399851    0.7313403951   -2.0830894492
H       -0.8856221602   -0.1743842044   -2.7979387105
H       -1.0396043473   -2.5608132222   -2.6891349845
H       -2.6353747841   -1.8383367253   -2.4743756361
H       -2.2738551847   -3.4040916900   -1.7513792900
H       -3.1432975327   -2.4240731475    0.3392577164
H       -1.9492002416   -1.7587548859    1.4467315662
H       -1.6982433836   -3.3490728335    0.7211935624
27   
torsion grid (120,)
C        0.7983208852    1.0597434422    0.1070383145
C       -0.2492882715   -0.0210815360    0.4583983650
C        0.4596447304   -0.9916868333    1.4344490066
C       -1.4082804112    0.7270652148    1.1612192673
C       -0.7680641617   -0.7827606769   -0.7907222857
C       -0.2338549928   -0.3947921061   -2.1653415202
C       -1.6794702892   -1.7841100602   -0.7559218583
C       -2.1154582719   -2.4631615699   -2.0461218334
C       -2.3791688926   -2.3655227119    0.4540586537
H        0.3902935722    1.8375668782   -0.5463678137
H        1.6869684683    0.6365208873   -0.3722826538
H        1.1286389026    1.5507639854    1.0287603923
H       -0.1899375152   -1.7887932949    1.7966167607
H        1.3144176861   -1.4658763000    0.9399875594
H        0.8365615861   -0.4453512188    2.3075912769
H       -2.2025336720    0.0635371656    1.5043905590
H       -1.8609018527    1.4510924156    0.4749903179
H       -1.0332518346    1.2780027739    2.0323240938
H        0.2663539448   -1.2406991736   -2.6531866289
H        0.4804236238    0.4242683705   -2.1411118650
H       -1.0459082566   -0.0905632954   -2.8371066295
H       -1.2691199492   -2.9007113454   -2.5891478663
H       -2.6021330430   -1.7614747089   -2.7351500887
H       -2.8271423807   -3.2692108990   -1.8454953253
H       -3.4671827269   -2.2838274719    0.3290310935
H       -2.1237545321   -1.9059510725    1.4042319177
H       -2.1578580308   -3.4382927671    0.5343541196
27   
torsion grid (135,)
C        0.7030231310    1.1180262546   -0.0533707191
C       -0.2277018673   -0.0166207398    0.4355564551
C        0.6203621499   -0.8975185313    1.3833876864
C       -1.3676846429    0.6914088783    1.2081145367
C       -0.7954703474   -0.8633030215   -0.7346635320
C       -0.2442183821   -0.6197862879   -2.1360999437
C       -1.7423265306   -1.8213334491   -0.6009368463
C       -2.2754795555   -2.5615295226   -1.8183799253
C       -2.3807255156   -2.3209893992    0.6784590431
H        0.2134595186    1.7644503462   -0.7891244132
H        1.6317140797    0.7399122524   -0.4914839766
H        0.9839357601    1.7442967372    0.8001400664
H        0.0425983008   -1.6963557005    1.8514367533
H        1.4416772387   -1.3672143149    0.8312298973
H        1.0579251418   -0.2873645639    2.1831369439
H       -2.0917745088    0.0026579263    1.6416342631
H       -1.9148950457    1.3640821856    0.5386774449
H       -0.9529625062    1.2940326057    2.0250021868
H       -0.0309425064   -1.5619552794   -2.6498454256
H        0.6850587341   -0.0533726957   -2.1318442869
H       -0.9514126748   -0.0612435327   -2.7639557501
H       -1.6039840697   -3.3782551368   -2.1185543969
H       -2.4047981399   -1.9124081455   -2.6884771707
H       -3.2475510041   -3.0144859958   -1.5977893235
H       -3.4342099055   -2.0143395191    0.7316103130
H       -1.8929204881   -1.9963941012    1.5935622840
H       -2.3784695124   -3.4187092069    0.6791460641
27   
torsion grid (150,)
C        0.7815088432    1.0868019455   -0.1074681843
C       -0.1035525502   -0.0444218928    0.4706497477
C        0.8047501076   -0.8867449307    1.3963102062
C       -1.2071314771    0.6754509210    1.2830645303
C       -0.7183059052   -0.9313936642   -0.6446845271
C       -0.1803586274   -0.7389300783   -2.0562970802
C       -1.6783952200   -1.8640539290   -0.4463995149
C       -2.2963045916   -2.6270736654   -1.6096969527
C       -2.2632576132   -2.3124098203    0.8777174057
H        0.2476966362    1.6864818537   -0.8516890943
H        1.7005576753    0.7114330451   -0.5663850563
H        1.0813397030    1.7585288606    0.7038651702
H        0.2587683969   -1.6715608287    1.9234854954
H        1.5962350794   -1.3715757966    0.8143272868
H        1.2834929075   -0.2474123847    2.1482890978
H       -1.8912729498   -0.0054171958    1.7874691833
H       -1.8051807301    1.3136235471    0.6233559630
H       -0.7536125881    1.3154949462    2.0491602550
H       -0.2318622991   -1.6595920636   -2.6399663522
H        0.8687091650   -0.4397476728   -2.0508948893
H       -0.7256191205    0.0385732516   -2.6086325869
H       -1.7016182461   -3.5125962539   -1.8744773673
H       -2.4055700677   -2.0201191054   -2.5113345873
H       -3.2936988080   -2.9881664069   -1.3368979514
H       -3.2911287595   -1.9442649327    0.9980569764
H       -1.6949477135   -2.0116303668    1.7540991226
H       -2.3243701937   -3.4082384772    0.8902164323
27   
torsion grid (165,)
C        0.2237846980    0.5156790320   -0.5160323787
C       -0.5566796952   -0.5373539837    0.3095191851
C        0.4768048029   -1.2729218824    1.1935595622
C       -1.5425063413    0.2801757450    1.1777101008
C       -1.2942148963   -1.5520961606   -0.6049012771
C       -0.8374121650   -1.5845238675   -2.0536774024
C       -2.2493332924   -2.4156235642   -0.1886843910
C       -3.0077467112   -3.3191751441   -1.1513900524
C       -2.6952030129   -2.6542071187    1.2412854532
H       -0.4326630110    1.0683778507   -1.1958623763
H        1.0346207099    0.0798980799   -1.1051229845
H        0.6767342411    1.2428536643    0.1660375694
H        0.0106614230   -1.9998243203    1.8625275333
H        1.1972297878   -1.8145036220    0.5704697875
H        1.0359537813   -0.5577346059    1.8092977397
H       -2.0988148505   -0.3214846964    1.8945184058
H       -2.2709459172    0.7941763699    0.5412965725
H       -0.9957500875    1.0421265662    1.7455170328
H       -1.1881548761   -2.4703100650   -2.5817967059
H        0.2556308639   -1.6074934301   -2.1103067537
H       -1.1603658525   -0.7021621370   -2.6198627658
H       -2.4971307791   -4.2821909250   -1.2908886227
H       -3.1607069595   -2.8747345991   -2.1365936758
H       -3.9988546770   -3.5468726522   -0.7436584414
H       -3.6651350070   -2.1796333795    1.4416605941
H       -1.9914550314   -2.3152065337    1.9977745397
H       -2.8399009946   -3.7310423564    1.3942901378
27   
torsion grid (180,)
C        0.5509268321    0.5379083424   -0.4900949257
C       -0.4729683381   -0.3472171529    0.2616750584
C        0.3485098357   -1.1176040463    1.3227358827
C       -1.4754198988    0.6255851482    0.9274664939
C       -1.2172612993   -1.3206907064   -0.6927199808
C       -0.9503429270   -1.1274574100   -2.1743546306
C       -2.0850480398   -2.2795790378   -0.2938666870
C       -2.7541953203   -3.2275730316   -1.2855952313
C       -2.5454206652   -2.5594696981    1.1226332110
H        0.0840256560    1.1664939803   -1.2533390179
H        1.3364522910   -0.0544887455   -0.9691457432
H        1.0396040597    1.2064497409    0.2266250444
H       -0.2603760749   -1.7379552883    1.9797500142
H        1.0752000937   -1.7745373661    0.8325252965
H        0.9044248556   -0.4131762258    1.9531511300
H       -2.2284440288    0.1149490641    1.5296810034
H       -2.0056742097    1.2046270062    0.1632636220
H       -0.9476707989    1.3331352178    1.5785496190
H       -1.4964999487   -1.8350497151   -2.7958582009
H        0.1123467787   -1.2325333165   -2.4186880370
H       -1.2457879177   -0.1222381030   -2.4984144006
H       -2.0403456328   -3.7000010025   -1.9669589669
H       -3.5074083321   -2.7169109390   -1.8986749647
H       -3.2696509298   -4.0331838441   -0.7539768535
H       -3.6424235184   -2.5953568965    1.1475443090
H       -2.2285325214   -1.8329281655    1.8648790237
H       -2.1968653014   -3.5482791050    1.4504733174
