22   
torsion grid (-165,)
C       -1.1432629812   -2.4479203155    0.2655297775
C       -2.2840820792   -3.2357752778    0.2242601757
C       -2.4572767327   -0.5935760102   -0.4368067772
C       -1.1957412005   -1.0800487242   -0.0762749122
C       -3.4855632313   -2.6214359810   -0.1611479745
C        1.2721685720   -0.6841289787   -0.7500775896
C        1.2261759453   -0.6165345451    0.7571531024
C        0.0116921370   -0.1868240904   -0.0515067956
C       -0.2493351888    1.3103498504   -0.0973313795
N       -3.5783440456   -1.3374982932   -0.4824778123
O       -4.6221099548   -3.3712736904   -0.2093821886
H       -0.2052605161   -2.9093599964    0.5604882042
H       -2.2691021615   -4.2897859861    0.4815743239
H       -2.5934696685    0.4501338110   -0.7045506221
H        1.8762347971    0.0445659425   -1.2840836765
H        1.2267627059   -1.6627417225   -1.2191263088
H        1.1875322064   -1.5437770931    1.3193509597
H        1.7886135674    0.1709689422    1.2505332350
H        0.6914754829    1.8622203803   -0.0121292928
H       -0.8982016817    1.6249155694    0.7275027902
H       -0.7188538231    1.6159210848   -1.0388725625
H       -5.3293928097   -2.7634587187   -0.4928094289
22   
torsion grid (-150,)
C       -1.1978148409   -2.3999127623    0.4731219233
C       -2.3397629355   -3.1872882943    0.4035567812
C       -2.3993263279   -0.6531339632   -0.6042827002
C       -1.1926027208   -1.0890194492   -0.0425804251
C       -3.4803434755   -2.6282920372   -0.1899361528
C        1.2122371312   -0.6131436785   -0.8775926116
C        1.2995523947   -0.6710396861    0.6298000474
C        0.0171485557   -0.1949107963   -0.0271918822
C       -0.2571423016    1.3002235646    0.0635533252
N       -3.5184615475   -1.3943162844   -0.6803316265
O       -4.6157516199   -3.3765433532   -0.2720706187
H       -0.3089541281   -2.8148079768    0.9377270332
H       -2.3696239555   -4.1986651530    0.7954630799
H       -2.4863163634    0.3472637704   -1.0194371515
H        1.7596164837    0.1656160450   -1.4023682072
H        1.1329925359   -1.5535598665   -1.4149408818
H        1.3380043578   -1.6455050268    1.1041094763
H        1.8964733632    0.0819727772    1.1362411731
H        0.6814752379    1.8555262468    0.1530611199
H       -0.8731314974    1.5340521878    0.9386924220
H       -0.7705875233    1.6794631579   -0.8260560599
H       -5.2770214837   -2.8090432647   -0.7087228166
22   
torsion grid (-135,)
C       -1.2629566773   -2.3195002617    0.6559643112
C       -2.4020142562   -3.1121218274    0.5695033906
C       -2.3210540685   -0.7361095890   -0.7702823697
C       -1.1919870816   -1.0886090882   -0.0201717870
C       -3.4645620952   -2.6383224563   -0.2115306879
C        1.1451369219   -0.5319541563   -0.9832989683
C        1.3437780793   -0.7292442797    0.5040019781
C        0.0217140952   -0.1989896224   -0.0091018883
C       -0.2536355004    1.2821245916    0.2192776497
N       -3.4338810451   -1.4814218633   -0.8676146963
O       -4.5950520863   -3.3909381704   -0.3154239148
H       -0.4318127724   -2.6576541973    1.2671157174
H       -2.4866007564   -4.0634906330    1.0843798782
H       -2.3391378400    0.1946888157   -1.3328656337
H        1.6542884322    0.2946276292   -1.4721351891
H        1.0294368669   -1.4213181490   -1.5955699173
H        1.4124348119   -1.7479862629    0.8702284242
H        1.9846276790   -0.0294364351    1.0328979638
H        0.6810919060    1.8518355286    0.2247358197
H       -0.7542908555    1.4426942543    1.1804743367
H       -0.8879964649    1.7045180327   -0.5662836228
H       -5.1968679533   -2.8884557028   -0.8944855470
22   
torsion grid (-120,)
C       -1.3231280185   -2.2298409569    0.7828617595
C       -2.4650457024   -3.0199770030    0.7024215480
C       -2.2366657651   -0.8320849763   -0.9153939164
C       -1.1818970631   -1.0962652785   -0.0345192756
C       -3.4521813245   -2.6402756984   -0.2172882978
C        1.1011122581   -0.4471989536   -1.0649299575
C        1.3683682604   -0.7800058428    0.3889980531
C        0.0287908152   -0.2046405265   -0.0140206854
C       -0.2522621896    1.2469842789    0.3533678440
N       -3.3498775413   -1.5762867961   -1.0110234685
O       -4.5826481067   -3.3930151509   -0.3194000587
H       -0.5424709660   -2.4884441010    1.4928471111
H       -2.6075908739   -3.9002864059    1.3205568038
H       -2.1843000647    0.0207605531   -1.5903850245
H        1.5929296019    0.4205948241   -1.4965813757
H        0.9582597707   -1.2772201474   -1.7504454960
H        1.4353072618   -1.8303152937    0.6547057247
H        2.0432238590   -0.1370591347    0.9472555359
H        0.6680533748    1.8400958388    0.3348671976
H       -0.6826681960    1.3186046103    1.3585307260
H       -0.9581637663    1.7055006945   -0.3470787203
H       -5.1264862847   -2.9646883768   -1.0055307799
22   
torsion grid (-105,)
C       -1.3860584100   -2.1290638993    0.8768049168
C       -2.5315471477   -2.9143516329    0.8105124861
C       -2.1539785803   -0.9414734115   -1.0420322923
C       -1.1705147672   -1.1074214137   -0.0628733131
C       -3.4443773124   -2.6414019721   -0.2189403828
C        1.0651739771   -0.3605277990   -1.1321084954
C        1.3857117120   -0.8181098037    0.2778644424
C        0.0343178970   -0.2107436714   -0.0285402053
C       -0.2436133770    1.1985591004    0.4786734638
N       -3.2698524360   -1.6842992014   -1.1275399840
O       -4.5761867249   -3.3933813934   -0.3097768345
H       -0.6539060528   -2.3044087366    1.6611314123
H       -2.7320915808   -3.7135062370    1.5165695448
H       -2.0366964994   -0.1743508340   -1.8064816535
H        1.5457963449    0.5407576431   -1.5033102487
H        0.8993857670   -1.1283889169   -1.8820209606
H        1.4474648922   -1.8882925545    0.4519597152
H        2.0853822889   -0.2270834042    0.8625280551
H        0.6675138675    1.8063144763    0.4711318151
H       -0.6285240029    1.1749395253    1.5044743596
H       -0.9895612025    1.7002514306   -0.1474862316
H       -5.0631793135   -3.0490811368   -1.0807243618
22   
torsion grid (-90,)
C       -1.4602933603   -2.0112995502    0.9556065143
C       -2.6057242000   -2.7953840374    0.9001892511
C       -2.0686408799   -1.0651282122   -1.1471379344
C       -1.1626851279   -1.1153222508   -0.0860773429
C       -3.4357020097   -2.6491951151   -0.2228073681
C        1.0208869122   -0.2710085019   -1.1917677684
C        1.3995819238   -0.8443925790    0.1608047724
C        0.0372877085   -0.2140672608   -0.0410794057
C       -0.2216442330    1.1414220395    0.6034190509
N       -3.1837312367   -1.8122644908   -1.2255304399
O       -4.5654357683   -3.4051691969   -0.3050621693
H       -0.7854384552   -2.0928073808    1.8047052854
H       -2.8678811732   -3.5020459508    1.6807812904
H       -1.8873503406   -0.3936341043   -1.9852653891
H        1.4902606106    0.6578822118   -1.5044430902
H        0.8266939406   -0.9730284661   -1.9973166745
H        1.4574694394   -1.9255716836    0.2476880214
H        2.1254698878   -0.3029681201    0.7615630677
H        0.6857331883    1.7549312859    0.6095279137
H       -0.5584718883    1.0228991371    1.6395825781
H       -0.9990180514    1.6891264284    0.0590905539
H       -4.9907075475   -3.1580380444   -1.1466554693
22   
torsion grid (-75,)
C       -1.5520867136   -1.8764032898    1.0176285244
C       -2.6936287289   -2.6639771524    0.9679943077
C       -1.9807631471   -1.1991680641   -1.2282396226
C       -1.1612550913   -1.1184348089   -0.1022730610
C       -3.4282269867   -2.6634423433   -0.2298219457
C        0.9714406747   -0.1762786316   -1.2408935566
C        1.4093259098   -0.8622593844    0.0392696122
C        0.0386339378   -0.2181593224   -0.0502242904
C       -0.1805547332    1.0735466292    0.7266959632
N       -3.0913079632   -1.9561905097   -1.3031926305
O       -4.5515615120   -3.4292772600   -0.3074048016
H       -0.9486776334   -1.8512438004    1.9224450253
H       -3.0239905866   -3.2671886452    1.8072992804
H       -1.7360394107   -0.6291163575   -2.1227103415
H        1.4267366878    0.7775242253   -1.4929807229
H        0.7509608441   -0.8088837516   -2.0953914647
H        1.4637291822   -1.9470679952    0.0313383237
H        2.1612799312   -0.3744668397    0.6539000013
H        0.7299226293    1.6820105337    0.7437609012
H       -0.4657586344    0.8640954359    1.7638439308
H       -0.9805541002    1.6692673250    0.2731007227
H       -4.9069652166   -3.2899498355   -1.2043289079
22   
torsion grid (-60,)
C       -1.6575941618   -1.7309261308    1.0591565272
C       -2.7905080274   -2.5295335769    1.0116501355
C       -1.8923676137   -1.3398466730   -1.2793371217
C       -1.1654160920   -1.1164212375   -0.1097199661
C       -3.4190101461   -2.6882405182   -0.2351693639
C        0.9159760606   -0.0779050710   -1.2788862523
C        1.4095966846   -0.8708696808   -0.0853496573
C        0.0362428168   -0.2170915174   -0.0565875514
C       -0.1212701768    1.0017882870    0.8433177257
N       -2.9924836268   -2.1133345134   -1.3534429870
O       -4.5308073000   -3.4708790467   -0.3118349814
H       -1.1386420788   -1.5906315463    2.0044582742
H       -3.1930287383   -3.0232717213    1.8900813631
H       -1.5859067437   -0.8734609758   -2.2129214273
H        1.3612908191    0.8948495177   -1.4680781601
H        0.6649421470   -0.6336373434   -2.1766267499
H        1.4544276688   -1.9512154011   -0.1864980899
H        2.1897762056   -0.4385237938    0.5357284102
H        0.7940501538    1.6026689356    0.8512523003
H       -0.3357347692    0.7091016633    1.8767884197
H       -0.9433308201    1.6383830300    0.4974253208
H       -4.8095429224   -3.4460665290   -1.2455909211
22   
torsion grid (-45,)
C       -1.7839215070   -1.5729094857    1.0789270648
C       -2.9058869599   -2.3869565768    1.0283099492
C       -1.7912387016   -1.4937232211   -1.2994477081
C       -1.1769066375   -1.1073436572   -0.1059862382
C       -3.4101148690   -2.7185430670   -0.2394506738
C        0.8520293610    0.0298507372   -1.3014866781
C        1.3991385911   -0.8731757624   -0.2172290172
C        0.0331687554   -0.2168031977   -0.0519475313
C       -0.0404861656    0.9226728270    0.9566294415
N       -2.8769289214   -2.2864872983   -1.3757918903
O       -4.5082254066   -3.5201679306   -0.3203568013
H       -1.3680849237   -1.3057442456    2.0463781836
H       -3.3914063468   -2.7632214876    1.9228048931
H       -1.4070425010   -1.1492890975   -2.2558137284
H        1.2905186214    1.0171744386   -1.4152586734
H        0.5604279708   -0.4309599403   -2.2387977095
H        1.4211006226   -1.9399059741   -0.4193402481
H        2.2158711242   -0.5097563684    0.4012008429
H        0.8633033630    1.5383042406    0.9095034563
H       -0.1277970599    0.5525963730    1.9832894138
H       -0.9018562723    1.5692078561    0.7555089786
H       -4.6950027982   -3.6198830048   -1.2718300785
22   
torsion grid (-30,)
C       -1.9240294432   -1.3968726321    1.0695334410
C       -3.0340988165   -2.2288734552    1.0134892310
C       -1.6652660970   -1.6643611290   -1.2792348283
C       -1.1934129596   -1.0856598204   -0.0957636098
C       -3.3948698961   -2.7470570641   -0.2383670596
C        0.7692371246    0.1510618408   -1.3091810307
C        1.3731532652   -0.8684461251   -0.3716196666
C        0.0342350227   -0.2190349561   -0.0342618395
C        0.0551640718    0.8267509582    1.0719138591
N       -2.7342479190   -2.4765916918   -1.3585909258
O       -4.4781643612   -3.5684944107   -0.3259552839
H       -1.6262013446   -0.9867306657    2.0292949490
H       -3.6139755180   -2.4806699216    1.8954114789
H       -1.1709180117   -1.4742451967   -2.2279507120
H        1.2156355468    1.1407496262   -1.3427363718
H        0.3972770723   -0.1899910994   -2.2687540343
H        1.3539897929   -1.9097161583   -0.6792350375
H        2.2395845325   -0.5841113306    0.2200753766
H        0.9436209256    1.4591108704    0.9831075278
H        0.0847485621    0.3715883432    2.0676594890
H       -0.8264982913    1.4750067591    1.0185186036
H       -4.5543039190   -3.8084765839   -1.2675383088
22   
torsion grid (-15,)
C       -2.0356637063   -1.2539660096    1.0362670688
C       -3.1477550748   -2.0850752428    0.9685547280
C       -1.5331015348   -1.8306253978   -1.2154240257
C       -1.1854535484   -1.0933583390   -0.0754407210
C       -3.3838256329   -2.7583321703   -0.2366757788
C        0.6704463488    0.2558003433   -1.3094957022
C        1.3543955575   -0.8307063089   -0.5156401340
C        0.0456479561   -0.2335803053   -0.0116079411
C        0.1418134504    0.7200121078    1.1681369103
N       -2.5998509164   -2.6415769464   -1.3042963331
O       -4.4668035528   -3.5793038103   -0.3363824471
H       -1.8361545083   -0.7244199537    1.9620094543
H       -3.8198173905   -2.2209330453    1.8095862925
H       -0.9273702919   -1.7805892627   -2.1173406741
H        1.1092144850    1.2494958759   -1.2978707906
H        0.1990980619   -0.0052350601   -2.2511996912
H        1.3220416132   -1.8450865136   -0.9021728610
H        2.2642822968   -0.5819240274    0.0243355465
H        1.0396639371    1.3393677950    1.0841570832
H        0.2070522340    0.1851808885    2.1224044281
H       -0.7235855402    1.3910054631    1.2088972355
H       -4.4436149042   -3.9412139234   -1.2409864000
22   
torsion grid (0,)
C       -1.1107061209   -2.4701480917    0.1220114736
C       -2.2480497184   -3.2679043349    0.0599058723
C       -2.4933875266   -0.5665783939   -0.2272470272
C       -1.2019286361   -1.0725193879   -0.0222575753
C       -3.4778631429   -2.6325570698   -0.1500779704
C       -0.1500895724    1.2018336728    0.6526131348
C        0.0310318599    1.0601923388   -0.8386413927
C        0.0075389398   -0.1837971667    0.0400207586
C        1.3429932567   -0.8708426203    0.2677678808
N       -3.6051348615   -1.3159109891   -0.2909131378
O       -4.6115660444   -3.3859324062   -0.2160707884
H       -0.1488915314   -2.9451972963    0.2841356954
H       -2.2035358076   -4.3466821467    0.1680767972
H       -2.6596324549    0.5018651714   -0.3490174534
H        0.6817533516    1.5856996520    1.2368969764
H       -1.1280889391    1.4824578081    1.0314656335
H       -0.8229575862    1.2426155129   -1.4837540135
H        0.9859940364    1.3476826687   -1.2699969491
H        2.1497934153   -0.1325940461    0.2961176201
H        1.5744708363   -1.5793951462   -0.5357215311
H        1.3605287744   -1.4129670066    1.2201365069
H       -5.3406766804   -2.7565691503   -0.3646169049
22   
torsion grid (15,)
C       -1.1340238479   -2.4437129085    0.2604678135
C       -2.2710584953   -3.2419594564    0.2154484782
C       -2.4689914384   -0.5952597568   -0.4150626388
C       -1.1991602540   -1.0750527182   -0.0667682116
C       -3.4770792711   -2.6351421197   -0.1572012788
C       -0.1363081604    1.1389929566    0.7590311660
C        0.0046933879    1.1339873761   -0.7438206269
C        0.0083621781   -0.1840123575    0.0159249333
C        1.3548758284   -0.8811430079    0.1222430295
N       -3.5818849230   -1.3453661761   -0.4630878063
O       -4.6098383288   -3.3904746186   -0.2129417516
H       -0.1905164034   -2.8960369944    0.5475498499
H       -2.2449494374   -4.2992506121    0.4581686175
H       -2.6184523853    0.4514951531   -0.6696911905
H        0.7061993698    1.4776162289    1.3564211082
H       -1.1101960953    1.3683707704    1.1813427947
H       -0.8587787816    1.3897594737   -1.3488964141
H        0.9507591394    1.4572292849   -1.1687434164
H        2.1652737324   -0.1463346801    0.1122037899
H        1.5155550156   -1.5663274647   -0.7177060161
H        1.4481037971   -1.4513879007    1.0534010753
H       -5.3209887792   -2.7832389000   -0.4874496997
22   
torsion grid (30,)
C       -1.1786390267   -2.3803642420    0.4276859378
C       -2.3097599124   -3.1846240858    0.3906141207
C       -2.4305765759   -0.6542459031   -0.6251248595
C       -1.2067500617   -1.0678674009   -0.0872346018
C       -3.4741114136   -2.6423298314   -0.1715167097
C       -0.0858763763    1.0596742512    0.8760466103
C       -0.0323444035    1.2088275423   -0.6265955218
C        0.0034137114   -0.1780816608   -0.0117564089
C        1.3514803884   -0.8846848710   -0.0450453376
N       -3.5406972659   -1.4121827867   -0.6683139961
O       -4.6014160116   -3.4057021734   -0.2204825448
H       -0.2671585275   -2.7800155126    0.8607411418
H       -2.3122680415   -4.1983457050    0.7776673682
H       -2.5442373142    0.3382202983   -1.0525439654
H        0.7905921891    1.3316605143    1.4586997328
H       -1.0355890387    1.2479519126    1.3678151907
H       -0.9229507288    1.5516084072   -1.1411596642
H        0.8917118888    1.5671573443   -1.0711140340
H        2.1653695297   -0.1538896637   -0.0702640623
H        1.4417411002   -1.5203219308   -0.9328684790
H        1.5101948797   -1.5097552719    0.8402030212
H       -5.2805331414   -2.8499376592   -0.6446193329
22   
torsion grid (45,)
C       -1.2478521855   -2.2788860451    0.6165495434
C       -2.3678956619   -3.0955279181    0.5657464750
C       -2.3642535833   -0.7374874955   -0.8122464355
C       -1.2210681682   -1.0485295269   -0.0724542198
C       -3.4594366387   -2.6524716659   -0.1983360003
C       -0.0023247055    0.9771317273    0.9819537422
C       -0.0856632724    1.2678874547   -0.5008629931
C       -0.0039839563   -0.1672534438   -0.0257731554
C        1.3266133910   -0.8829651305   -0.2216568051
N       -3.4655073706   -1.5098315631   -0.8739292097
O       -4.5749234968   -3.4312775529   -0.2627541117
H       -0.3906902969   -2.5932219232    1.2053985794
H       -2.4187777420   -4.0450732602    1.0884383703
H       -2.4110118674    0.1752628915   -1.4001021444
H        0.9265482278    1.1928264988    1.5037133695
H       -0.9016133850    1.1262287878    1.5720629803
H       -1.0219896372    1.6580402029   -0.8843459755
H        0.7933772941    1.6741380109   -0.9930961206
H        2.1543847281   -0.1668681184   -0.2144212039
H        1.3482693029   -1.4161440059   -1.1785555206
H        1.5188129843   -1.6092550946    0.5747305046
H       -5.1994181129   -2.9539712578   -0.8392260638
22   
torsion grid (60,)
C       -1.3235994786   -2.1703878341    0.7706352604
C       -2.4348088167   -2.9977815012    0.7060985000
C       -2.2812691799   -0.8276600280   -0.9486858851
C       -1.2250261867   -1.0374503539   -0.0617361319
C       -3.4381114461   -2.6629841537   -0.2191417468
C        0.0690415407    0.9009551555    1.0604349054
C       -0.1287054781    1.3012313496   -0.3878997603
C       -0.0053105882   -0.1618893514   -0.0255004647
C        1.2962800906   -0.8701292934   -0.3783722550
N       -3.3726801177   -1.6127772652   -1.0289179906
O       -4.5427070483   -3.4552566600   -0.3006816039
H       -0.5296296928   -2.3919277327    1.4799408827
H       -2.5469087158   -3.8738743261    1.3364517288
H       -2.2580564073    0.0114416534   -1.6403312330
H        1.0356074840    1.0879415407    1.5209955613
H       -0.7811341387    1.0032979119    1.7283499366
H       -1.1001769978    1.6962760238   -0.6671303675
H        0.7051543288    1.7602859978   -0.9116448027
H        2.1455254092   -0.1819288440   -0.3143617497
H        1.2586279625   -1.2703713441   -1.3977197343
H        1.4929664931   -1.7050812733    0.3027294680
H       -5.1034831688   -3.0591780996   -0.9926789122
22   
torsion grid (75,)
C       -1.4095837224   -2.0630464550    0.8934169939
C       -2.5171959355   -2.8955819620    0.8162100399
C       -2.1870346835   -0.9283428862   -1.0542247305
C       -1.2210600831   -1.0391762114   -0.0539801992
C       -3.4207381380   -2.6735530809   -0.2367414526
C        0.1371085278    0.8196818553    1.1265142013
C       -0.1609444457    1.3187677698   -0.2746225925
C       -0.0019127602   -0.1642625312   -0.0198657041
C        1.2680322842   -0.8392985670   -0.5215963084
N       -3.2708541976   -1.7208109959   -1.1508863156
O       -4.5179684922   -3.4740081298   -0.3355108908
H       -0.6870058089   -2.1939454257    1.6960170303
H       -2.7008922359   -3.6912268679    1.5308060544
H       -2.0921621659   -0.1617347910   -1.8211867694
H        1.1304730130    0.9893929108    1.5334223575
H       -0.6664005145    0.8687402295    1.8557593114
H       -1.1563774243    1.7090485325   -0.4637491216
H        0.6317539219    1.8261871022   -0.8175212482
H        2.1253688311   -0.1605618290   -0.4600144289
H        1.1554167435   -1.1528441885   -1.5654488618
H        1.4999049480   -1.7303424877    0.0726841747
H       -5.0063318144   -3.1603304189   -1.1186479343
22   
torsion grid (90,)
C       -1.5031712028   -1.9534520053    0.9900492405
C       -2.6127411820   -2.7849167482    0.9048309099
C       -2.0827095406   -1.0475638142   -1.1384756584
C       -1.2111217936   -1.0513611538   -0.0479561815
C       -3.4097079672   -2.6837167347   -0.2466636272
C        0.2059222065    0.7329299978    1.1807958086
C       -0.1873007574    1.3243472698   -0.1599505026
C        0.0049135072   -0.1713418761   -0.0174268148
C        1.2415164671   -0.7902097132   -0.6560404766
N       -3.1628161913   -1.8411792348   -1.2459736503
O       -4.5044439835   -3.4860088273   -0.3577046823
H       -0.8585142597   -1.9939940755    1.8651573481
H       -2.8749555118   -3.4905044352    1.6863711115
H       -1.9102932396   -0.3654612846   -1.9698749607
H        1.2218162277    0.8911438390    1.5327375526
H       -0.5473964730    0.7235161625    1.9632613054
H       -1.1999258070    1.7032362030   -0.2624766365
H        0.5625757440    1.8819672083   -0.7146004705
H        2.0956844149   -0.1064106501   -0.6052754575
H        1.0578710743   -1.0275901001   -1.7098448060
H        1.5199622293   -1.7198871620   -0.1468143255
H       -4.9135681137   -3.2607912934   -1.2132914209
22   
torsion grid (105,)
C       -1.5995407766   -1.8444497411    1.0593104912
C       -2.7153950010   -2.6690851938    0.9692601770
C       -1.9734959956   -1.1816666158   -1.1996116596
C       -1.1972175603   -1.0716602591   -0.0425533857
C       -3.4053592363   -2.6928983047   -0.2517557589
C        0.2779921320    0.6468695978    1.2231405979
C       -0.2071332061    1.3195293951   -0.0465773840
C        0.0129600198   -0.1818504775   -0.0144506390
C        1.2132186115   -0.7266056224   -0.7780193196
N       -3.0539754102   -1.9714398391   -1.3138997083
O       -4.5022331046   -3.4912509258   -0.3710041501
H       -1.0335004617   -1.7986183598    1.9863752343
H       -3.0580183107   -3.2789240320    1.7987736835
H       -1.7193726583   -0.5970390138   -2.0829238639
H        1.3122885887    0.7971131719    1.5204001459
H       -0.4216735838    0.5826447284    2.0512647849
H       -1.2301752156    1.6836224103   -0.0614469035
H        0.4985569883    1.9231987232   -0.6111061853
H        2.0598588324   -0.0336738974   -0.7266095736
H        0.9677004112   -0.8822583769   -1.8342881156
H        1.5351951189   -1.6886495720   -0.3635746353
H       -4.8290843344   -3.3601562237   -1.2798702267
22   
torsion grid (120,)
C       -1.6959850875   -1.7360876558    1.1013515550
C       -2.8206673623   -2.5490750869    1.0069779531
C       -1.8627470716   -1.3271100095   -1.2389503521
C       -1.1795983963   -1.0990730386   -0.0390974423
C       -3.4066782845   -2.7006762073   -0.2571716669
C        0.3535524236    0.5619873706    1.2551834042
C       -0.2240779837    1.3032873981    0.0664130489
C        0.0218280063   -0.1953714230   -0.0115450893
C        1.1847313188   -0.6509534261   -0.8842192642
N       -2.9478720110   -2.1085192948   -1.3577961723
O       -4.5087905051   -3.4910082537   -0.3825736427
H       -1.2095980382   -1.6050348442    2.0639905840
H       -3.2439643542   -3.0577239367    1.8668865806
H       -1.5267020364   -0.8498470020   -2.1581794911
H        1.4037491672    0.7090402359    1.4915728238
H       -0.2847073432    0.4436983762    2.1251671880
H       -1.2527179604    1.6433922378    0.1408693553
H        0.4305710144    1.9548973282   -0.5064106563
H        2.0227488391    0.0505981836   -0.8160856003
H        0.8902911205   -0.7168085637   -1.9369486916
H        1.5423422525   -1.6389280640   -0.5733052568
H       -4.7541118605   -3.4579327522   -1.3252955616
22   
torsion grid (135,)
C       -1.8006814461   -1.6071636502    1.1162358564
C       -2.9293621922   -2.4135302803    1.0217348114
C       -1.7548134187   -1.4856546464   -1.2594874061
C       -1.1707641815   -1.1164024326   -0.0411761839
C       -3.4082989681   -2.7131138439   -0.2606433070
C        0.4392949400    0.4671277925    1.2756125238
C       -0.2298000600    1.2835529427    0.1911301884
C        0.0258324895   -0.2040335567   -0.0170768937
C        1.1450416832   -0.5650785924   -0.9860102519
N       -2.8418574021   -2.2652345103   -1.3779167039
O       -4.5114719201   -3.5020744419   -0.3864410258
H       -1.4017107318   -1.3730847970    2.0984317262
H       -3.4327807791   -2.8105039609    1.8971312218
H       -1.3347063954   -1.1350264847   -2.1995650929
H        1.5038285015    0.6079060110    1.4402720404
H       -0.1235438903    0.2832431293    2.1844772429
H       -1.2558850113    1.5962473530    0.3603741197
H        0.3724433446    1.9864705914   -0.3786339529
H        1.9774437528    0.1398046465   -0.8936264397
H        0.8077381604   -0.5363608284   -2.0268244727
H        1.5283626999   -1.5711384281   -0.7829118902
H       -4.6727133275   -3.5832004406   -1.3442525048
22   
torsion grid (150,)
C       -1.9246398883   -1.4383022889    1.0949779460
C       -3.0421928818   -2.2580657019    1.0058869754
C       -1.6429375297   -1.6534831760   -1.2564937782
C       -1.1827619045   -1.1017258007   -0.0542376105
C       -3.3967352192   -2.7390617388   -0.2623919811
C        0.5270192521    0.3513295492    1.2886491190
C       -0.2102141593    1.2660457919    0.3382262826
C        0.0180200683   -0.1956775866   -0.0321843574
C        1.0798897984   -0.4665913748   -1.0895083520
N       -2.7189681170   -2.4518153079   -1.3682238510
O       -4.4880899744   -3.5456698577   -0.3812252948
H       -1.6315941184   -1.0649753089    2.0710987342
H       -3.6284002876   -2.5333449044    1.8764888435
H       -1.1261240046   -1.4518874891   -2.1908305525
H        1.6021744991    0.4729709913    1.3837061735
H        0.0382204904    0.0743923851    2.2162136993
H       -1.2223239868    1.5581721149    0.6022784884
H        0.3543773573    2.0215029284   -0.2021696233
H        1.9447624382    0.1863346481   -0.9376069530
H        0.7097330771   -0.2780469981   -2.1025603379
H        1.4269989565   -1.5044314232   -1.0406691625
H       -4.5546180181   -3.7649178801   -1.3285908020
22   
torsion grid (165,)
C       -1.1062857340   -2.4884985401   -0.0989191863
C       -2.2497380453   -3.2734608226   -0.1143075298
C       -2.4922344573   -0.5552169962   -0.0922088083
C       -1.1953043069   -1.0805214965   -0.0805117277
C       -3.4899349633   -2.6166438995   -0.1181552397
C        1.3534533010   -0.7561910172   -0.4973918991
C        1.0980034215   -0.4930030573    0.9668146961
C        0.0124676644   -0.1876668950   -0.0590980163
C       -0.2193344652    1.2774241931   -0.3930682579
N       -3.6162357121   -1.2959173820   -0.1090364391
O       -4.6297369111   -3.3629094360   -0.1343260908
H       -0.1388378594   -2.9822575015   -0.0942017120
H       -2.2072919176   -4.3576154242   -0.1277481404
H       -2.6557511607    0.5184802612   -0.0906043398
H        2.0198271898   -0.0827304181   -1.0287291412
H        1.4066801084   -1.7841979836   -0.8404762969
H        0.9388027710   -1.3468011392    1.6190694747
H        1.6000775156    0.3476009574    1.4383662040
H        0.7316296623    1.8181548494   -0.4079871864
H       -0.8594609266    1.7702144086    0.3470122020
H       -0.6845449872    1.3904356191   -1.3785315027
H       -5.3655908482   -2.7237421227   -0.1361458149
22   
torsion grid (180,)
C       -1.1135195255   -2.4711108760    0.0851621625
C       -2.2522217409   -3.2613249671    0.0574323560
C       -2.4882112758   -0.5611014409   -0.2672403107
C       -1.1997322572   -1.0716531692   -0.0794446989
C       -3.4852265840   -2.6192709849   -0.1394617263
C        1.3099067447   -0.7307058700   -0.6262933419
C        1.1589279519   -0.5645470435    0.8659623975
C        0.0086956694   -0.1818334446   -0.0561614426
C       -0.2336173360    1.3059108015   -0.2464122141
N       -3.6083866550   -1.3083023138   -0.2978810849
O       -4.6203585513   -3.3722731692   -0.1711056104
H       -0.1508763769   -2.9520460123    0.2366601855
H       -2.2126757733   -4.3385837194    0.1812910911
H       -2.6491070894    0.5044033469   -0.4020608657
H        1.9530079018   -0.0353299671   -1.1585683940
H        1.3026433546   -1.7348628218   -1.0394476490
H        1.0471125107   -1.4546507164    1.4777376670
H        1.6991897435    0.2438305324    1.3507793590
H        0.7139722563    1.8515953258   -0.2115930894
H       -0.8772914509    1.7133928642    0.5412073958
H       -0.6999606683    1.5176560393   -1.2151228112
H       -5.3516115093   -2.7442562365   -0.3156241280
