21   
torsion grid (-165,)
C        1.5761384180   -0.0530637236    0.7824294518
C        0.0374414888   -0.0989248721    0.7125160685
C       -0.4273403361   -1.5554861856    0.9432185826
C       -0.5491154239    0.8041201106    1.8143050619
C       -0.4043000162    0.3494756527   -0.6769542189
C       -1.6403413269    0.7107811304   -1.0419020659
C       -2.0476974100    1.0886804332   -2.4402264046
H        1.9490410494    0.9634820349    0.6125609309
H        2.0236526572   -0.7068074208    0.0250184522
H        1.9337685719   -0.3834683208    1.7640056513
H       -1.5196513679   -1.6236428588    0.9200561266
H       -0.0350001278   -2.2209257690    0.1664938984
H       -0.0791810881   -1.9250422601    1.9156323131
H       -1.6429989195    0.7688846053    1.8262636494
H       -0.2477612664    1.8464787089    1.6677671778
H       -0.1984473775    0.4805301952    2.8012031059
H        0.3640325672    0.3073508888   -1.4523659675
H       -2.4305845288    0.7483864998   -0.2904196736
H       -2.8377255063    0.4250456910   -2.8145539023
H       -2.4501138874    2.1090932333   -2.4746416854
H       -1.2017289002    1.0332433683   -3.1324776215
21   
torsion grid (-150,)
C        1.5449698040    0.0025317648    0.7884188055
C        0.0100961632   -0.1233055427    0.7021695135
C       -0.3752815716   -1.6058478949    0.9202835284
C       -0.6385150610    0.7373491113    1.7990799775
C       -0.4333190990    0.2834444075   -0.6947464575
C       -1.5979431012    0.8421652997   -1.0457927108
C       -2.0088885292    1.1481685106   -2.4610390249
H        1.8658061101    1.0383677327    0.6303701852
H        2.0335209645   -0.6203104926    0.0304774817
H        1.9085322664   -0.3183419157    1.7711699025
H       -1.4620928608   -1.7327222043    0.8871103088
H        0.0603519258   -2.2451839517    0.1443679610
H       -0.0140114746   -1.9615031386    1.8930247613
H       -1.7270236613    0.6219696585    1.8153787539
H       -0.4118427254    1.7986335725    1.6531199103
H       -0.2644426622    0.4401378159    2.7852380958
H        0.2603288439    0.0069739672   -1.4929611600
H       -2.3163109377    1.1164311764   -0.2729292601
H       -2.9338202367    0.6201030817   -2.7262068282
H       -2.2077476801    2.2191525350   -2.5943359890
H       -1.2340735353    0.8546312889   -3.1761835257
21   
torsion grid (-135,)
C        1.4992268992    0.1149825868    0.7935088135
C       -0.0268864937   -0.1060209601    0.7169348316
C       -0.3260479493   -1.5968905811    0.9997623124
C       -0.7244341325    0.7609881790    1.7760697085
C       -0.4879483012    0.2084497411   -0.6946511372
C       -1.5540689487    0.9269531722   -1.0670926785
C       -1.9762266629    1.1547257994   -2.4940208239
H        1.7551406130    1.1620856439    0.5980862035
H        2.0242388146   -0.5029098086    0.0562064849
H        1.8816420246   -0.1498926207    1.7860328213
H       -1.4032158181   -1.7902284492    0.9678445398
H        0.1537279201   -2.2442683344    0.2570904943
H        0.0478772889   -1.8861697204    1.9893156478
H       -1.8056086671    0.5879404606    1.7913590471
H       -0.5522329185    1.8270854777    1.5938544090
H       -0.3393292162    0.5218970533    2.7734757542
H        0.1126661670   -0.2604649509   -1.4787776492
H       -2.1751713460    1.3997589497   -0.3067692438
H       -2.9914332915    0.7769497564   -2.6706137249
H       -1.9909731500    2.2247520037   -2.7372897845
H       -1.3018133693    0.6558046708   -3.1969776728
21   
torsion grid (-120,)
C        1.5288974940    0.1176020741    0.8597368554
C        0.0203469430   -0.2157387013    0.8322270104
C       -0.1682457623   -1.7185486837    1.1373814655
C       -0.7011069125    0.6135709030    1.9054307588
C       -0.5020740718    0.0561590321   -0.5658933361
C       -1.4627821211    0.9133277252   -0.9316812955
C       -1.9233800795    1.1280643576   -2.3487625556
H        1.6974500679    1.1801814176    0.6555959500
H        2.0754959613   -0.4606394772    0.1061116423
H        1.9604170809   -0.1166934844    1.8400711467
H       -1.2297863498   -1.9875694224    1.1331677453
H        0.3394443942   -2.3402612297    0.3911817996
H        0.2457852736   -1.9699745441    2.1209579646
H       -1.7743515303    0.3962699879    1.9255539537
H       -0.5733925923    1.6879324597    1.7354057942
H       -0.2954845930    0.3829319294    2.8966181017
H       -0.0137277183   -0.5309099738   -1.3485683376
H       -1.9660914171    1.5116460631   -0.1729373206
H       -2.9929436483    0.9063325910   -2.4550983735
H       -1.7857335011    2.1727759756   -2.6554867022
H       -1.3737395319    0.4931151770   -3.0506187219
21   
torsion grid (-105,)
C        1.4628655491    0.1501072775    0.7540816205
C       -0.0285271144   -0.2556863558    0.7872568954
C       -0.1417725821   -1.7581885001    1.1196517033
C       -0.7436973884    0.5585871926    1.8782123349
C       -0.6167879183   -0.0194120676   -0.5924142195
C       -1.4307375181    0.9709751676   -0.9773246625
C       -1.9299327817    1.1699683646   -2.3835144089
H        1.5689407955    1.2174343348    0.5353382330
H        2.0083711072   -0.4066888998   -0.0163470200
H        1.9418626808   -0.0549233285    1.7191290199
H       -1.1901456891   -2.0737653834    1.1544067987
H        0.3687455157   -2.3689968523    0.3662153568
H        0.3128792355   -1.9774067469    2.0926212054
H       -1.8124438740    0.3223419535    1.9145432451
H       -0.6381922305    1.6359766834    1.7135298544
H       -0.3135824689    0.3335197611    2.8604082837
H       -0.2758051369   -0.7259243427   -1.3541286782
H       -1.7807018695    1.6952494149   -0.2422311070
H       -3.0262430474    1.1410195589   -2.4232766956
H       -1.6257026104    2.1489653384   -2.7754336388
H       -1.5449271701    0.3998383463   -3.0592088278
21   
torsion grid (-90,)
C        1.4410315192    0.2017975728    0.7314806533
C       -0.0248628206   -0.2824732449    0.8149396766
C       -0.0513669453   -1.7878799671    1.1443891931
C       -0.7419058246    0.4905293354    1.9373351583
C       -0.6839162521   -0.0660265403   -0.5394465374
C       -1.3398051248    1.0232618095   -0.9576896324
C       -1.9018519597    1.2054469440   -2.3419746734
H        1.4811549786    1.2757852864    0.5245253955
H        1.9837026718   -0.3139525500   -0.0688184852
H        1.9676292577    0.0097451026    1.6743854612
H       -1.0806677499   -2.1581597075    1.2068379601
H        0.4693686058   -2.3694261078    0.3748070874
H        0.4394557821   -1.9869040486    2.1037489159
H       -1.7962352099    0.2024510812    2.0031082192
H       -0.6953734556    1.5727895675    1.7797725912
H       -0.2691186992    0.2815285015    2.9036161131
H       -0.5239530857   -0.8716774421   -1.2607103182
H       -1.5032968747    1.8503450328   -0.2664197569
H       -2.9865463895    1.3693410781   -2.3120757712
H       -1.4634775746    2.0835982226   -2.8332546969
H       -1.7071745569    0.3320188044   -2.9721715533
21   
torsion grid (-75,)
C        1.3650832824    0.2668392479    0.7613088124
C       -0.0810430477   -0.2723039202    0.8396166836
C       -0.0480812260   -1.7799323684    1.1530218320
C       -0.8301656846    0.4587983527    1.9721167001
C       -0.7695946068   -0.0632102734   -0.5057823876
C       -1.2277687297    1.0957413595   -0.9939826281
C       -1.8512042088    1.2696720408   -2.3523016957
H        1.3676425486    1.3429421862    0.5612392343
H        1.9254640046   -0.2233264096   -0.0424174322
H        1.8973793084    0.0899684414    1.7040136376
H       -1.0619460443   -2.1920170319    1.2101701100
H        0.4966698712   -2.3319192198    0.3782899147
H        0.4478459047   -1.9703842338    2.1113199656
H       -1.8659666226    0.1114272743    2.0443264760
H       -0.8492856350    1.5412104656    1.8111389057
H       -0.3389745016    0.2774205207    2.9352427732
H       -0.8361716441   -0.9467949062   -1.1447269403
H       -1.1620523078    1.9972089446   -0.3826172022
H       -2.8752867521    1.6560687507   -2.2727283188
H       -1.2873106905    1.9920670131   -2.9563136272
H       -1.8865499625    0.3231340991   -2.9007148185
21   
torsion grid (-60,)
C        1.3133222602    0.2822652901    0.7546451621
C       -0.1087414925   -0.3145501397    0.8230968839
C       -0.0059922621   -1.8275378449    1.0925730282
C       -0.8868811766    0.3512207663    1.9783757990
C       -0.8393253939   -0.0971835305   -0.5007182265
C       -1.1078747515    1.0863267152   -1.0649553831
C       -1.8314504092    1.2746731934   -2.3703709563
H        1.2815938808    1.3625899749    0.5811902198
H        1.8886339595   -0.1698713128   -0.0601205457
H        1.8521598073    0.1065729808    1.6935298420
H       -1.0000661350   -2.2850045679    1.1554859826
H        0.5477342554   -2.3334003970    0.2932732884
H        0.5139021688   -2.0232666776    2.0369414094
H       -1.9032941957   -0.0504201751    2.0482488963
H       -0.9650948267    1.4330434793    1.8308863133
H       -0.3824179897    0.1760255967    2.9362817187
H       -1.1681169562   -0.9986465296   -1.0220391792
H       -0.7890756550    2.0012436198   -0.5615827291
H       -2.7423919032    1.8718727897   -2.2359217463
H       -1.2066266194    1.8109558971   -3.0959893129
H       -2.1166443621    0.3145048816   -2.8115784539
21   
torsion grid (-45,)
C        1.2842592036    0.3301248522    0.8170308159
C       -0.1193700411   -0.3057201749    0.8565770871
C        0.0336783225   -1.8268596576    1.0547770661
C       -0.9216219694    0.2796001361    2.0396751730
C       -0.8806580401   -0.0585736233   -0.4421101917
C       -0.9659264893    1.1005448274   -1.1059213342
C       -1.7759230467    1.3183476047   -2.3551131195
H        1.2336931490    1.4183760909    0.7100815441
H        1.8673155407   -0.0633352546   -0.0218516959
H        1.8278670194    0.1155156359    1.7444695856
H       -0.9448296024   -2.3180052660    1.1092071034
H        0.5908593565   -2.2775123954    0.2256707861
H        0.5718868449   -2.0489463730    1.9829973075
H       -1.9283633448   -0.1501281246    2.0826035565
H       -1.0262353240    1.3647193804    1.9398245603
H       -0.4201677398    0.0677560518    2.9920210316
H       -1.4544662401   -0.9070390079   -0.8218203329
H       -0.4137441112    1.9678664619   -0.7405049737
H       -2.5300801115    2.1016156386   -2.2054041806
H       -1.1410927717    1.6465370862   -3.1879609989
H       -2.2929631562    0.4036283747   -2.6615521727
21   
torsion grid (-30,)
C        1.1659462323    0.4056008885    0.8614590093
C       -0.2153402246   -0.2729045437    0.8619506654
C       -0.0155021262   -1.7949259811    1.0226868279
C       -1.0563676862    0.2530606560    2.0462645730
C       -0.9794809007   -0.0241383684   -0.4298796465
C       -0.8966449243    1.0482196944   -1.2266805138
C       -1.7378737477    1.2700552699   -2.4548760015
H        1.0851885716    1.4963056144    0.8088323022
H        1.7680101761    0.0687342950    0.0114454440
H        1.7077783543    0.1636612844    1.7827220084
H       -0.9777366148   -2.3195554069    1.0440103742
H        0.5720283183   -2.2036971743    0.1931263238
H        0.5110806600   -2.0236100101    1.9561823086
H       -2.0491724263   -0.2102802791    2.0614240412
H       -1.1938810808    1.3366301500    1.9727429540
H       -0.5646367875    0.0298242491    3.0009872776
H       -1.7282725074   -0.7825914935   -0.6723478725
H       -0.1693281622    1.8287338130   -1.0019423817
H       -2.3233381371    2.1945636584   -2.3702482290
H       -1.1130673094    1.3732330955   -3.3511448111
H       -2.4341326214    0.4417200814   -2.6192318363
21   
torsion grid (-15,)
C        1.0939924555    0.4680091827    0.7706974997
C       -0.2600222761   -0.2578159809    0.8171523193
C       -0.0081134810   -1.7785769853    0.9162962343
C       -1.0532140700    0.2025963603    2.0605792219
C       -1.1048500863    0.0047076303   -0.4166226653
C       -0.9336526999    0.9604293193   -1.3379531028
C       -1.8462872527    1.1894385802   -2.5130328664
H        0.9705386278    1.5560831172    0.7534577764
H        1.6698801960    0.1762326725   -0.1137572666
H        1.6865283179    0.2194901239    1.6580860337
H       -0.9522578218   -2.3334854512    0.9613706670
H        0.5533261760   -2.1401760622    0.0480361760
H        0.5657019676   -2.0203487362    1.8184142351
H       -2.0258436644   -0.2990529617    2.1169529231
H       -1.2335013750    1.2820395196    2.0288099531
H       -0.5017051594   -0.0289187500    2.9797774530
H       -1.9777185118   -0.6469407545   -0.5113751069
H       -0.0771671407    1.6300833634   -1.2642057502
H       -2.2689873003    2.2020936110   -2.4931760487
H       -1.3032521611    1.0927591947   -3.4617801957
H       -2.6760800860    0.4758162744   -2.5222689166
21   
torsion grid (0,)
C        1.0038410558    0.5313616732    0.7922859752
C       -0.3178701834   -0.2509866173    0.8234196153
C       -0.0133917330   -1.7657729993    0.8308261171
C       -1.0945097549    0.1117048400    2.1090127076
C       -1.2045197476    0.0510119641   -0.3699722986
C       -0.9574727001    0.8855842207   -1.3868042023
C       -1.8948866523    1.1309134622   -2.5389940043
H        0.8301307278    1.6126522066    0.8028530985
H        1.5924933717    0.2888028833   -0.0988547613
H        1.6103426016    0.2827503746    1.6700774371
H       -0.9372973524   -2.3547196057    0.8556556131
H        0.5462534029   -2.0557991153   -0.0646641847
H        0.5814314512   -2.0379139297    1.7107388264
H       -2.0430011160   -0.4344384987    2.1653586258
H       -1.3208786072    1.1827108699    2.1392167809
H       -0.5087012227   -0.1408587691    3.0007216739
H       -2.1527933207   -0.4934953391   -0.3725798590
H       -0.0205305195    1.4410920796   -1.4102854148
H       -2.1815943043    2.1886723781   -2.5974315113
H       -1.4200636899    0.8793734324   -3.4959027388
H       -2.8090627445    0.5361820880   -2.4470455815
21   
torsion grid (15,)
C        1.0174829084    0.6020643131    0.8532581128
C       -0.2907558313   -0.2046644645    0.8466124232
C        0.0305760476   -1.7137387081    0.7649205501
C       -1.0569467569    0.0758855970    2.1581937544
C       -1.1937544425    0.1585755786   -0.3185085946
C       -0.8710150430    0.8445584758   -1.4216081772
C       -1.8134938437    1.1242462487   -2.5616378778
H        0.8191586978    1.6783591584    0.8892832424
H        1.6250429071    0.3968730560   -0.0345536028
H        1.6192500848    0.3387946732    1.7301187377
H       -0.8866935148   -2.3132245577    0.7564188558
H        0.5900683180   -1.9431150572   -0.1478037655
H        0.6306398706   -2.0294968861    1.6268410820
H       -1.9948387180   -0.4900036245    2.1968263799
H       -1.3020581279    1.1396195244    2.2489385357
H       -0.4565211856   -0.2113559758    3.0291222032
H       -2.2079201676   -0.2432577642   -0.2442047617
H        0.1351286378    1.2495680280   -1.5268940910
H       -1.9360699203    2.2033462967   -2.7193525271
H       -1.4292944997    0.7095013835   -3.5023384334
H       -2.8028554482    0.6928915092   -2.3799923212
21   
torsion grid (30,)
C        0.9933172326    0.5840889322    0.9311363156
C       -0.3140393731   -0.2250882998    0.8650385078
C        0.0074955524   -1.7249625963    0.6818429728
C       -1.0792774956   -0.0322844057    2.1915210099
C       -1.2132215270    0.2258793685   -0.2763293987
C       -0.8339480733    0.7498812368   -1.4481992641
C       -1.7710765070    1.1063962558   -2.5707092330
H        0.7872687458    1.6546317619    1.0309640447
H        1.6090078957    0.4390922583    0.0373642296
H        1.5917747269    0.2682651359    1.7930796309
H       -0.9102289324   -2.3206670349    0.6227373496
H        0.5735421990   -1.8899875498   -0.2405437056
H        0.6005393368   -2.1006181746    1.5246427585
H       -2.0135707427   -0.6055793584    2.1954466542
H       -1.3311496197    1.0221875371    2.3499699930
H       -0.4767075240   -0.3686170269    3.0428665414
H       -2.2764337096    0.0178063274   -0.1313594444
H        0.2217392352    0.9547855700   -1.6277472555
H       -1.7045799343    2.1729914447   -2.8202677494
H       -1.5207850281    0.5523414522   -3.4845055271
H       -2.8106050709    0.8818269094   -2.3121020890
21   
torsion grid (45,)
C        0.9730408559    0.6590955677    0.9956856163
C       -0.3112885960   -0.1862136078    0.8861451305
C        0.0598309816   -1.6659377807    0.6446258741
C       -1.0915502331   -0.0719438259    2.2109012598
C       -1.2057326408    0.3023876446   -0.2489692516
C       -0.8138287944    0.6285554150   -1.4865179648
C       -1.7365218959    1.0514156810   -2.5972935243
H        0.7325373902    1.7150843114    1.1553730009
H        1.5847196782    0.5868179504    0.0907309735
H        1.5870442506    0.3151420924    1.8361668258
H       -0.8383747358   -2.2862900066    0.5528484543
H        0.6372394791   -1.7764852351   -0.2788412510
H        0.6600547014   -2.0567562426    1.4754615096
H       -2.0057638690   -0.6762192771    2.1836700235
H       -1.3802289384    0.9664902072    2.4090725493
H       -0.4850042162   -0.4202376100    3.0543362672
H       -2.2757451716    0.3258978649   -0.0301737958
H        0.2481052059    0.6002455358   -1.7359144674
H       -1.4841503900    2.0548499358   -2.9630602246
H       -1.6572172431    0.3730769325   -3.4565031576
H       -2.7804097317    1.0618763512   -2.2684551731
21   
torsion grid (60,)
C        1.2773121612   -0.2379099289    0.2336276452
C       -0.1489925310    0.1632634663    0.6670491796
C       -0.9122347629   -1.0935544612    1.1374656658
C       -0.0564618060    1.1619644483    1.8359549430
C       -0.8885039892    0.8276243105   -0.4927928671
C       -1.1519203678    0.2686901714   -1.6799670586
C       -1.8845135522    0.9438648178   -2.8071726958
H        1.8422583132    0.6353303247   -0.1092151489
H        1.2530317655   -0.9625780159   -0.5864095203
H        1.8223036309   -0.6922242001    1.0698696355
H       -1.9313041701   -0.8393761234    1.4476006693
H       -0.9827747196   -1.8364024683    0.3365839824
H       -0.4014567800   -1.5607270754    1.9881216085
H       -1.0537077717    1.4639400563    2.1761426526
H        0.4865860517    2.0666337816    1.5392021594
H        0.4694677073    0.7194265779    2.6891781452
H       -1.2288991072    1.8511933875   -0.3226390143
H       -0.8215530972   -0.7539878575   -1.8725198248
H       -1.2612335600    0.9976024471   -3.7089265460
H       -2.7894069728    0.3867364971   -3.0816068492
H       -2.1811438945    1.9624050636   -2.5378981376
21   
torsion grid (75,)
C        1.3289977260   -0.2296526919    0.2485129241
C       -0.1208135364    0.1204430493    0.6529494311
C       -0.8546949830   -1.1720375722    1.0642439144
C       -0.0976602412    1.0863015544    1.8524637387
C       -0.8185366516    0.8053906620   -0.5183545457
C       -1.2711506491    0.2149654276   -1.6309961104
C       -1.9041540246    0.9360252185   -2.7900189139
H        1.8787955712    0.6657792269   -0.0616309493
H        1.3387481832   -0.9337611272   -0.5894421016
H        1.8674674012   -0.6855642826    1.0884594231
H       -1.8926861525   -0.9614808873    1.3417417627
H       -0.8662540571   -1.9060926081    0.2525017104
H       -0.3571965644   -1.6379078844    1.9228701457
H       -1.1143698277    1.3566599329    2.1593999144
H        0.4362384820    2.0108922180    1.6039937719
H        0.4044583938    0.6305603997    2.7131193829
H       -0.8975390961    1.8928578770   -0.4506911314
H       -1.1930861126   -0.8688111701   -1.7313189261
H       -1.3392856927    0.7680840968   -3.7159673831
H       -2.9243560457    0.5752739511   -2.9728465368
H       -1.9517081040    2.0149869690   -2.6124780484
21   
torsion grid (90,)
C        1.4042194046   -0.1595512085    0.2666602749
C       -0.0648546997    0.1446681618    0.6402937816
C       -0.7663903530   -1.1733884787    1.0171629175
C       -0.1009744953    1.0979416421    1.8508523729
C       -0.7331282037    0.8299808942   -0.5426343213
C       -1.3834794371    0.2466676391   -1.5567626532
C       -1.9552717805    0.9785487890   -2.7411343538
H        1.9361237495    0.7532613014   -0.0245785773
H        1.4514298817   -0.8572162684   -0.5753162612
H        1.9368910505   -0.6039373590    1.1163901099
H       -1.8224677350   -1.0047519522    1.2520848353
H       -0.7123021140   -1.9087422182    0.2080845090
H       -0.2874709847   -1.6201374293    1.8957752690
H       -1.1327238379    1.3324737567    2.1353785949
H        0.4087092900    2.0418141859    1.6251418378
H        0.3960000031    0.6480884396    2.7177647784
H       -0.5856315247    1.9121280841   -0.5883047044
H       -1.5345753395   -0.8330273778   -1.5478705424
H       -1.5137425478    0.6172762266   -3.6787975073
H       -3.0383094890    0.8205049626   -2.8209376332
H       -1.7728852148    2.0556177118   -2.6734439465
21   
torsion grid (105,)
C        1.4259622896   -0.1336863714    0.3169825137
C       -0.0683984980    0.1414584023    0.6019885326
C       -0.7678872201   -1.1885297094    0.9283644333
C       -0.1912294427    1.0896248247    1.8130680394
C       -0.6659829228    0.8282926949   -0.6131334719
C       -1.4748960812    0.2983361506   -1.5385211497
C       -1.9840233718    1.0318383181   -2.7505144164
H        1.9605459521    0.7919475028    0.0749515941
H        1.5390046360   -0.8178948370   -0.5299918821
H        1.9111359412   -0.5826892325    1.1920791850
H       -1.8382323541   -1.0414960021    1.1075105766
H       -0.6547658726   -1.9149604288    0.1168701645
H       -0.3317034603   -1.6333701698    1.8295986306
H       -1.2418298740    1.2993120364    2.0414431265
H        0.3081727629    2.0457110721    1.6184480372
H        0.2694651116    0.6462919535    2.7033778615
H       -0.3370563494    1.8616463840   -0.7532161574
H       -1.8128589970   -0.7319417599   -1.4302651885
H       -1.6754846939    0.5277884680   -3.6753517943
H       -3.0808153288    1.0672173040   -2.7612719651
H       -1.6105190695    2.0600703142   -2.7840615919
21   
torsion grid (120,)
C        1.5074041628   -0.0496712820    0.3591067830
C       -0.0079866815    0.1846876328    0.5496326071
C       -0.6962232684   -1.1591107937    0.8336214691
C       -0.2233516855    1.1314455837    1.7514163491
C       -0.5449690629    0.8649282773   -0.6955485944
C       -1.4929236827    0.4214745670   -1.5299485816
C       -1.9694792129    1.1591677293   -2.7527221293
H        2.0310066289    0.8918260678    0.1578414255
H        1.6949716688   -0.7251996119   -0.4820990844
H        1.9480037494   -0.4923581591    1.2602481451
H       -1.7731710921   -1.0331454800    0.9878997465
H       -0.5496636111   -1.8667554651    0.0106837671
H       -0.2801482682   -1.6120877155    1.7401876149
H       -1.2902263240    1.3125586953    1.9194511324
H        0.2600465962    2.1004919964    1.5829791939
H        0.1999353309    0.7001514315    2.6662300765
H       -0.0802477875    1.8302732964   -0.9143383027
H       -1.9727735847   -0.5373929039   -1.3367772463
H       -1.8155328214    0.5616256765   -3.6602923064
H       -3.0446413218    1.3710702254   -2.6930627926
H       -1.4426801719    2.1101515054   -2.8791771946
21   
torsion grid (135,)
C        1.4745118496   -0.1395459482    0.3885568787
C       -0.0532905119    0.0657245203    0.4746595840
C       -0.7373990896   -1.2826358740    0.7466274407
C       -0.3575019131    1.0367327115    1.6394666962
C       -0.5248149020    0.7129297282   -0.8148499234
C       -1.5904606123    0.3833808249   -1.5546945951
C       -2.0236458040    1.1077206067   -2.8012514393
H        1.9900986428    0.8105590485    0.2082403389
H        1.7340000962   -0.8230974382   -0.4272432195
H        1.8640554519   -0.5602828009    1.3227627612
H       -1.8192578505   -1.1685439171    0.8718571207
H       -0.5614167558   -1.9900716153   -0.0706754675
H       -0.3449834702   -1.7263302120    1.6682749703
H       -1.4358555809    1.1965356755    1.7409817076
H        0.1127167729    2.0125917517    1.4738226619
H        0.0233441164    0.6366926673    2.5869067780
H        0.0667147843    1.5781852012   -1.1261358234
H       -2.2026619558   -0.4699871048   -1.2642155007
H       -2.0350554498    0.4342069766   -3.6676249251
H       -3.0422240866    1.5023510964   -2.6949084374
H       -1.3578005153    1.9454460257   -3.0309689111
21   
torsion grid (150,)
C        1.5597930494   -0.1046654704    0.5615166131
C        0.0240949900    0.0316922800    0.6079113570
C       -0.6029007869   -1.3314454426    0.9446108538
C       -0.3464215235    1.0516918891    1.7107883736
C       -0.4559666757    0.5789222311   -0.7275735668
C       -1.6323569850    0.3484681478   -1.3231815475
C       -2.0797658221    0.9862633469   -2.6110008097
H        2.0335719863    0.8596644914    0.3454352926
H        1.8700898460   -0.8132952317   -0.2146480213
H        1.9493406831   -0.4619324701    1.5214906200
H       -1.6899276452   -1.2625350479    1.0543982829
H       -0.3866260835   -2.0684523267    0.1641905045
H       -0.2028929800   -1.7092808904    1.8922432042
H       -1.4328945373    1.1603861845    1.7890129271
H        0.0740875338    2.0395900079    1.4921524543
H        0.0408445153    0.7278407138    2.6846354015
H        0.2196657991    1.2994764534   -1.1956042125
H       -2.3333091928   -0.3548254713   -0.8730297626
H       -2.2886307053    0.2293898690   -3.3777068080
H       -3.0075386638    1.5550133435   -2.4680777620
H       -1.3208434249    1.6692590165   -3.0053205570
21   
torsion grid (165,)
C        1.6345516111   -0.1258172117    0.6858554595
C        0.0958520001   -0.0440104392    0.7014000336
C       -0.4850128037   -1.4414469222    0.9901726478
C       -0.3387981069    0.9319724446    1.8190822402
C       -0.3805646001    0.4962816300   -0.6431701051
C       -1.6298601538    0.4513570299   -1.1214676531
C       -2.0718746159    1.0508527729   -2.4288653687
H        2.0788097218    0.8599237839    0.5061654159
H        1.9860954161   -0.8021658041   -0.1016983242
H        2.0168669674   -0.4962668610    1.6435349948
H       -1.5776442682   -1.4204522543    1.0509018168
H       -0.2053429879   -2.1515058118    0.2050737826
H       -0.1092679231   -1.8217199169    1.9471805438
H       -1.4300408676    0.9982639944    1.8750978634
H        0.0475073833    1.9399887274    1.6327632059
H        0.0370255345    0.5983338330    2.7941784308
H        0.3730284770    1.0217443103   -1.2342494602
H       -2.4054106324   -0.0555613967   -0.5451114433
H       -2.4930269130    0.2863986826   -3.0941579740
H       -2.8572833490    1.8016807227   -2.2737604060
H       -1.2390884158    1.5335612596   -2.9498345155
21   
torsion grid (180,)
C        1.6830925801   -0.0641601070    0.6448877825
C        0.1429518171   -0.0521138529    0.6367125734
C       -0.3733575379   -1.4836369791    0.8964442676
C       -0.3593739217    0.8829269156    1.7577325560
C       -0.3399090209    0.4460483892   -0.7242298542
C       -1.6160686313    0.5905530616   -1.1006881156
C       -2.0667625377    1.0836151132   -2.4486152373
H        2.0859095760    0.9400091852    0.4694468280
H        2.0761205031   -0.7259530665   -0.1354738786
H        2.0674026926   -0.4163414891    1.6085793100
H       -1.4674147978   -1.5121434522    0.9171804674
H       -0.0364074941   -2.1695480798    0.1120590519
H       -0.0071524854   -1.8581517371    1.8599657178
H       -1.4531543671    0.9040976614    1.7950650644
H       -0.0109884006    1.9086736454    1.5972542585
H        0.0057519845    0.5458119983    2.7353722172
H        0.4383695394    0.7037777300   -1.4456019729
H       -2.4112396537    0.3389876082   -0.3960584519
H       -2.6876882229    0.3349932926   -2.9570986182
H       -2.6784294402    1.9900295860   -2.3547950428
H       -1.2144931398    1.3142239778   -3.0954382571
