14   
torsion grid (-165,)
C        0.2372940153   -0.3666566128    0.9966316523
C        1.6532177702   -0.4358590535    2.9498044967
C       -0.4153870922   -1.4946942857    1.5002021632
C        1.2862063970    0.1672944168    1.7478447151
C        0.9349750829   -1.5748103872    3.3252421862
N       -0.0892477528   -2.0872453784    2.6578195086
O        2.8656582028   -2.3954295181    4.9614089935
O        0.6080538418   -3.7256590668    4.6991467040
S        1.3801130206   -2.2531948543    4.9860910569
Cl       2.1332934532    1.5862334234    1.1867446667
H       -0.0690285901    0.0829173116    0.0580528991
H        2.4846123461   -0.0683732782    3.5423799633
H       -1.2439423149   -1.9358977221    0.9497092391
H        0.4835005656   -4.1491436446    5.5691316762
14   
torsion grid (-150,)
C        0.2148316069   -0.3522649665    1.0127609155
C        1.6507252926   -0.4657334513    2.9501493615
C       -0.4900470909   -1.4385121286    1.5399921142
C        1.2981742264    0.1384927935    1.7433713050
C        0.8841846171   -1.5643434842    3.3438906451
N       -0.1788130225   -2.0317040072    2.7001788214
O        2.7320328712   -2.0951857036    5.1716768809
O        0.8168178922   -3.8091401215    4.5925816587
S        1.2538596832   -2.2337772892    5.0199417981
Cl       2.2057069518    1.5073602322    1.1530954838
H       -0.0808656016    0.0999937227    0.0720852605
H        2.5031004379   -0.1370356406    3.5353590835
H       -1.3490170860   -1.8408637340    1.0066945285
H        0.5795580406   -4.2706347787    5.4182365934
14   
torsion grid (-135,)
C        0.2151233635   -0.3647010702    1.0045815874
C        1.6520202422   -0.5166741028    2.9393152466
C       -0.5525015749   -1.3938589649    1.5596156880
C        1.3300984874    0.0774034439    1.7184096032
C        0.8223836511   -1.5557608913    3.3582342739
N       -0.2698167599   -1.9784637474    2.7308352638
O        2.5597707715   -1.8921504939    5.3319973454
O        1.0131287519   -3.8433791730    4.4942482243
S        1.1402810502   -2.2427307559    5.0338111941
Cl       2.3143441862    1.3745942474    1.0902534516
H       -0.0578887324    0.0824129899    0.0546371766
H        2.5170599369   -0.2249191057    3.5258468268
H       -1.4377005824   -1.7543114618    1.0395634925
H        0.7569612397   -4.3844667288    5.2641496354
14   
torsion grid (-120,)
C        0.2272179309   -0.4002082101    0.9913220998
C        1.6535466644   -0.5827630923    2.9321160076
C       -0.6056853610   -1.3602255250    1.5757086549
C        1.3700978868   -0.0097543024    1.6916188639
C        0.7548031122   -1.5467200204    3.3811252047
N       -0.3588582394   -1.9264287256    2.7640920194
O        2.3674826483   -1.7371575210    5.4781339132
O        1.1975405539   -3.8293466687    4.4317694193
S        1.0353511784   -2.2570211389    5.0521389188
Cl       2.4374779869    1.1972807808    1.0208959568
H       -0.0169928169    0.0339541530    0.0276188964
H        2.5273063952   -0.3242397150    3.5216809639
H       -1.5122909996   -1.6785608765    1.0652720168
H        0.9642577494   -4.4476705436    5.1492706076
14   
torsion grid (-105,)
C        0.2260641394   -0.4178079880    0.9868967496
C        1.6500419819   -0.6492181084    2.9237774077
C       -0.6617579308   -1.3121265869    1.5929580963
C        1.3965916836   -0.0860164115    1.6729843805
C        0.6908047219   -1.5389194297    3.3984427300
N       -0.4433064184   -1.8705315410    2.7913530068
O        2.1642330794   -1.6189403746    5.6046336302
O        1.3949519963   -3.7786769506    4.3671412659
S        0.9480675886   -2.2854913650    5.0548644354
Cl       2.5352420266    1.0336623623    0.9690742675
H        0.0047734483    0.0109839409    0.0152786849
H        2.5347233324   -0.4260387151    3.5118144018
H       -1.5884265613   -1.5845093482    1.0922219644
H        1.2416344990   -4.4662929670    5.0423846058
14   
torsion grid (-90,)
C        0.2226592915   -0.4235111848    1.0045246109
C        1.6224085914   -0.7568973786    2.9443228823
C       -0.7272384829   -1.2531627357    1.6062633894
C        1.4133275374   -0.1773135248    1.6937520196
C        0.5974982011   -1.5712693344    3.4192516343
N       -0.5511857705   -1.8283724266    2.8050290150
O        1.8712486396   -1.5943824932    5.7537474814
O        1.5344583335   -3.7373298162    4.3273347304
S        0.8089676065   -2.3744279616    5.0552176083
Cl       2.6324760743    0.8544960134    0.9901105592
H        0.0357183399    0.0197500630    0.0321639253
H        2.5161611559   -0.5887446469    3.5367128881
H       -1.6688833048   -1.4601610170    1.1023068120
H        1.4828798647   -4.4729220334    4.9669673016
14   
torsion grid (-75,)
C        0.1825336674   -0.4121451992    0.9892630290
C        1.6004686449   -0.8490921669    2.8947103703
C       -0.8023742596   -1.1887799193    1.6024717553
C        1.4015218690   -0.2465855416    1.6546878086
C        0.5358192792   -1.6023865842    3.3875036052
N       -0.6362696553   -1.7869074868    2.7929463223
O        1.5746138719   -1.5289063597    5.8401200080
O        1.7346544757   -3.6182521959    4.3163934042
S        0.7207622958   -2.4297735318    5.0133153670
Cl       2.6671739065    0.7125618641    0.9305447001
H        0.0036784484    0.0513238817    0.0248404408
H        2.5170462153   -0.7381110743    3.4646382376
H       -1.7647789733   -1.3350948569    1.1170227540
H        1.8240373910   -4.3433407164    4.9642455633
14   
torsion grid (-60,)
C        0.1570468314   -0.3577835916    1.0133607961
C        1.6148344092   -0.9538261690    2.8443207457
C       -0.8476607267   -1.1037364213    1.6308075916
C        1.4066583805   -0.2891657542    1.6388073593
C        0.5265876187   -1.6668709074    3.3487079834
N       -0.6738591553   -1.7592579246    2.7903507822
O        1.2687883174   -1.5503632256    5.9129488207
O        1.9660794237   -3.4883980774    4.3427183617
S        0.6833281888   -2.5340319783    4.9573836748
Cl       2.6986778526    0.6277075151    0.9061085084
H       -0.0281116291    0.1546703124    0.0752691928
H        2.5609098202   -0.9238802847    3.3736467666
H       -1.8329247106   -1.1781502309    1.1759348040
H        2.1805023947   -4.1577015408    5.0206099902
14   
torsion grid (-45,)
C        0.1543262255   -0.3096483625    1.0431506896
C        1.6365814441   -1.0780437723    2.7898093281
C       -0.8701471968   -1.0280533431    1.6611628845
C        1.4255319038   -0.3439709922    1.6252907551
C        0.5267803292   -1.7512803135    3.3019480647
N       -0.6951713917   -1.7468907938    2.7816022764
O        0.9075864950   -1.6542194180    5.9489553293
O        2.1285075375   -3.3629356060    4.4269389627
S        0.6323405886   -2.6667755207    4.8901699403
Cl       2.7443328229    0.5325985691    0.8905736594
H       -0.0321641370    0.2576780485    0.1374618187
H        2.6040078908   -1.1367974608    3.2751606751
H       -1.8724781035   -1.0266425196    1.2385969001
H        2.4038194428   -3.9581103434    5.1500818522
14   
torsion grid (-30,)
C        0.3709158332   -0.5234258272    0.8765601366
C        1.1564143246   -0.4060665564    3.1607347870
C       -0.3648534626   -1.6536325022    1.2382662173
C        1.1415960027    0.0995459911    1.8620137829
C        0.3735885961   -1.5379223699    3.3873517684
N       -0.3676195672   -2.1640200486    2.4786791213
O       -0.8380315747   -1.4510966982    5.7747743802
O        1.7324600996   -1.7503650539    5.5306747490
S        0.1717896185   -2.2796320397    5.0585996275
Cl       2.0881431645    1.5117208112    1.4645151665
H        0.3454447137   -0.1442857811   -0.1395562492
H        1.7434676206    0.0410577803    3.9539885239
H       -0.9742653001   -2.1702150203    0.4999420062
H        1.8723231446   -2.0573284083    6.4462985939
14   
torsion grid (-15,)
C        0.3465140009   -0.4993260651    0.8794406334
C        1.2339806333   -0.4421590881    3.1287405159
C       -0.4127414390   -1.6080720854    1.2613547905
C        1.1809543727    0.0814108076    1.8369724082
C        0.4179852835   -1.5445914209    3.3797927894
N       -0.3794776400   -2.1336479913    2.4934362967
O       -0.9226874452   -1.7521320825    5.6933601329
O        1.6718201219   -1.5571119919    5.6047335071
S        0.2664404452   -2.3524393520    5.0295072266
Cl       2.1621931119    1.4633385145    1.4163251834
H        0.2915479036   -0.1072322107   -0.1305482031
H        1.8668071601   -0.0214611469    3.9003382098
H       -1.0710404770   -2.0941722604    0.5445658324
H        1.8146371240   -1.8606585865    6.5208090630
14   
torsion grid (0,)
C        0.3465858049   -0.4846346717    0.8810613497
C        1.2997217205   -0.4838495103    3.1041892439
C       -0.4460574202   -1.5653584461    1.2774586796
C        1.2312958262    0.0524248560    1.8174808959
C        0.4414722690   -1.5494439283    3.3741400550
N       -0.4004859911   -2.0997546884    2.5041407526
O       -0.9836744202   -2.0522695694    5.5922106449
O        1.5395857485   -1.3898491563    5.6775501064
S        0.3352062141   -2.4076045575    5.0055052511
Cl       2.2572553951    1.3964459429    1.3798833471
H        0.2787776404   -0.0826094946   -0.1241991455
H        1.9689675618   -0.0909524178    3.8590504597
H       -1.1419145038   -2.0203790593    0.5758179272
H        1.7327833422   -1.7301058907    6.5709941500
14   
torsion grid (15,)
C        0.3283756423   -0.4643187119    0.8710068293
C        1.3576638522   -0.5107981032    3.0590850783
C       -0.4880917335   -1.5178955948    1.2917295518
C        1.2644821749    0.0346402789    1.7777162501
C        0.4685965170   -1.5443031622    3.3573401443
N       -0.4191983641   -2.0602656275    2.5136122362
O       -0.9425554194   -2.3536303129    5.4955636400
O        1.4073548994   -1.2221264182    5.7096423283
S        0.4459467110   -2.4374758966    4.9760827125
Cl       2.3225364474    1.3436362428    1.3109911895
H        0.2397796665   -0.0548957379   -0.1296404737
H        2.0622386277   -0.1398934304    3.7924860257
H       -1.2237829704   -1.9445544262    0.6131942004
H        1.6705163245   -1.5591636913    6.5862409890
14   
torsion grid (30,)
C        0.2648585546   -0.4410318030    0.9315556826
C        1.4040852880   -0.5223516504    3.0616027553
C       -0.5596977394   -1.4699567169    1.3944889662
C        1.2622721403    0.0286045789    1.7877171067
C        0.5005203652   -1.5299160192    3.4064629028
N       -0.4423262287   -2.0187028958    2.6104447654
O       -0.7862739688   -2.6481822867    5.4869358712
O        1.2808259559   -1.0593842483    5.7823517216
S        0.6045193031   -2.4373592448    5.0160475460
Cl       2.3317336320    1.3079481348    1.2679012047
H        0.1358998199   -0.0271767423   -0.0628798948
H        2.1510748500   -0.1663649012    3.7600614806
H       -1.3432821068   -1.8721838069    0.7557279763
H        1.5989271359   -1.3495361877    6.6577407361
14   
torsion grid (45,)
C        0.2436575724   -0.4229294868    0.9516533357
C        1.4637858174   -0.5621599798    3.0321798198
C       -0.6061273827   -1.4150851413    1.4464252118
C        1.2956650586   -0.0002541426    1.7673392649
C        0.5306563194   -1.5305155770    3.4114961613
N       -0.4626345790   -1.9745108148    2.6559895027
O       -0.6298488889   -2.9189088081    5.4046690560
O        1.0707902027   -0.9602515446    5.8200304672
S        0.7167690293   -2.4355043623    5.0170975712
Cl       2.3969779171    1.2338632459    1.2069795460
H        0.0927584308   -0.0004925370   -0.0361103544
H        2.2525217250   -0.2382468994    3.7010490721
H       -1.4330046427   -1.7790871736    0.8400644248
H        1.3904036494   -1.1924923779    6.7124006303
14   
torsion grid (60,)
C        0.2249063261   -0.3964523961    0.9745575118
C        1.5354811696   -0.5949448099    2.9924672503
C       -0.6410739706   -1.3539950772    1.5075367181
C        1.3318511276   -0.0198659263    1.7394169966
C        0.5820999327   -1.5254474246    3.4129772912
N       -0.4637825178   -1.9239301731    2.7084552906
O       -0.4038357358   -3.1572609079    5.3184353325
O        0.8393992279   -0.9077007285    5.8494336909
S        0.8410048839   -2.4106533061    5.0209483355
Cl       2.4557415382    1.1689695354    1.1289329825
H        0.0451359056    0.0346491109   -0.0046198546
H        2.3725594686   -0.3108496900    3.6211681528
H       -1.5104993537   -1.6804452447    0.9405240404
H        1.1306287997   -1.0864427936    6.7639646737
14   
torsion grid (75,)
C        0.2178066412   -0.3973001803    0.9762023269
C        1.6100906583   -0.6421341665    2.9317163783
C       -0.6691745664   -1.3043591015    1.5620592855
C        1.3772713549   -0.0686572611    1.6825429932
C        0.6332501755   -1.5192343655    3.4065118729
N       -0.4655926954   -1.8695351268    2.7605877656
O       -0.1590513864   -3.3335605821    5.2432087755
O        0.5834318665   -0.8963028970    5.8530002818
S        0.9367208173   -2.3587801756    5.0309054980
Cl       2.5306380315    1.0530938976    1.0043737954
H        0.0135344427    0.0310828216    0.0006345629
H        2.4953837271   -0.4029060455    3.5125046289
H       -1.5800785897   -1.5909713269    1.0403824630
H        0.8125535600   -1.0331958925    6.7923844534
14   
torsion grid (90,)
C        0.1905108763   -0.3727611376    1.0034790837
C        1.6603332933   -0.6507447688    2.8955705002
C       -0.7051516263   -1.2352584163    1.6438679391
C        1.3934880858   -0.0828840581    1.6493287304
C        0.6741587966   -1.4824505697    3.4262243590
N       -0.4704766783   -1.7919225627    2.8392977903
O        0.1294936165   -3.4617913383    5.1854693452
O        0.3288158278   -0.9470903888    5.8677636804
S        1.0231011282   -2.2853303575    5.0570144824
Cl       2.5600753712    0.9795529182    0.9023553031
H       -0.0420794098    0.0504637676    0.0320159939
H        2.5850675219   -0.4477993498    3.4272252553
H       -1.6507856929   -1.4889443996    1.1689098178
H        0.4727265228   -1.0837731898    6.8241217508
14   
torsion grid (105,)
C        0.1888187740   -0.3713673483    1.0092429824
C        1.7086629739   -0.6539042795    2.8604177132
C       -0.7241845748   -1.1676853335    1.7108205247
C        1.4251884095   -0.1175762123    1.6025947255
C        0.7055841122   -1.4199044745    3.4523932304
N       -0.4745619052   -1.6932938791    2.9156857326
O        0.4129209042   -3.5086535047    5.1395443993
O        0.1066133274   -1.0256960280    5.8733313391
S        1.0846919896   -2.1856143259    5.0899355122
Cl       2.6147154900    0.8593415886    0.7794605847
H       -0.0582197010    0.0285953659    0.0315134819
H        2.6613064425   -0.4796838220    3.3516032548
H       -1.6970062372   -1.3905691813    1.2769534741
H        0.1836187030   -1.1854311589    6.8337961685
14   
torsion grid (120,)
C        0.1917137014   -0.3884700171    1.0036767790
C        1.7414585675   -0.6523000894    2.8324637154
C       -0.7398067221   -1.1046319426    1.7661538815
C        1.4526129762   -0.1661708784    1.5549115672
C        0.7195681227   -1.3386436728    3.4860853666
N       -0.4857343284   -1.5820919714    2.9890572906
O        0.6920084307   -3.4937729674    5.1034180003
O       -0.0789964578   -1.1331436562    5.8820210163
S        1.1253225916   -2.0718542433    5.1291821940
Cl       2.6669562453    0.7089831286    0.6572003339
H       -0.0611575500   -0.0256592632    0.0130409850
H        2.7135580459   -0.5000444761    3.2918711018
H       -1.7324397950   -1.3017944230    1.3659479680
H       -0.0384563557   -1.3280367495    6.8380737408
14   
torsion grid (135,)
C        0.1919886354   -0.3962376083    0.9983477158
C        1.7566570344   -0.6416168535    2.8175577670
C       -0.7589796645   -1.0284422619    1.8094137322
C        1.4701713723   -0.2071917379    1.5211197816
C        0.7152039560   -1.2465070887    3.5196806317
N       -0.5081672775   -1.4567367430    3.0510809079
O        0.9766471585   -3.4235108758    5.0745799749
O       -0.2413317539   -1.2724741743    5.8782336156
S        1.1458952817   -1.9474759395    5.1710281361
Cl       2.7093942573    0.5643102014    0.5645874638
H       -0.0597273904   -0.0709112597   -0.0055294415
H        2.7419403280   -0.5107551393    3.2551936124
H       -1.7660751929   -1.1980938298    1.4334117070
H       -0.2168047817   -1.5033852805    6.8266024965
14   
torsion grid (150,)
C        0.1876586323   -0.4174322298    0.9884543721
C        1.7576001235   -0.6582404317    2.8023958768
C       -0.7848579171   -0.9597749888    1.8362075566
C        1.4803147311   -0.2701028966    1.4906101859
C        0.6949300022   -1.1776976362    3.5426919239
N       -0.5424216010   -1.3415570897    3.0957684840
O        1.2667562240   -3.3032018972    5.0752173582
O       -0.3801804032   -1.4467801944    5.8475401308
S        1.1427227479   -1.8244235316    5.2151759409
Cl       2.7452519349    0.3941244185    0.4882803323
H       -0.0582765823   -0.1252197802   -0.0269446770
H        2.7540452038   -0.5598104383    3.2231410947
H       -1.8038833435   -1.0941153181    1.4785544231
H       -0.3490393139   -1.6638134643    6.7988496019
14   
torsion grid (165,)
C        0.1795586596   -0.4397829925    0.9769479058
C        1.7523238034   -0.7032450749    2.7854588352
C       -0.8117845332   -0.8943484074    1.8517163648
C        1.4837751214   -0.3459266089    1.4644261589
C        0.6711954836   -1.1435054857    3.5522191933
N       -0.5781584886   -1.2425024978    3.1241751718
O        1.5753838036   -3.1170209446    5.1168519628
O       -0.4827706714   -1.6636794290    5.7871276570
S        1.1203808385   -1.7035867569    5.2597511727
Cl       2.7719679861    0.2162375144    0.4297619848
H       -0.0600662596   -0.1685436508   -0.0457448722
H        2.7581557042   -0.6500125251    3.1914709764
H       -1.8413301667   -0.9805924392    1.5097551030
H       -0.4595528096   -1.8186347880    6.7507146585
14   
torsion grid (180,)
C        0.1726945644   -0.4457319180    0.9690658271
C        1.7438650009   -0.7655675979    2.7707835764
C       -0.8363813568   -0.8191493041    1.8601510368
C        1.4847138130   -0.4185889266    1.4460389918
C        0.6450038152   -1.1339612773    3.5522533147
N       -0.6130346112   -1.1504008606    3.1400720679
O        1.8671681224   -2.8326960295    5.2093373594
O       -0.5316404038   -1.9030629958    5.7090008544
S        1.0713854424   -1.5735100242    5.3013611494
Cl       2.7938739065    0.0488398868    0.3907553324
H       -0.0587106452   -0.1805278318   -0.0570865580
H        2.7552243535   -0.7770140714    3.1651306833
H       -1.8726259980   -0.8480232025    1.5290488142
H       -0.5562484935   -1.9860993988    6.6812252291
