23   
torsion grid (-165,)
C       -0.9841536383    2.5326738526    0.3281371954
C       -1.3528669416    3.7282182542    0.9562114248
C       -0.4145201287    1.5854821845    2.4800884509
C       -0.5116906116    1.4560997767    1.0866317513
C       -1.2646766436    3.8445807008    2.3411438619
C       -0.7954160644    2.7675677881    3.1115730770
C       -1.2986488534   -0.8790820216    0.1338471631
C       -0.5910653810   -1.1083035639   -1.2227916011
C       -0.1603680048    0.1450337103    0.4323929065
N        0.1221681453    0.1847707130   -1.0290962679
O       -1.5960264948    4.9876234584    3.0558168478
O       -0.7022323127    2.8760631138    4.4752304212
H       -1.0436548455    2.4295778071   -0.7502602634
H       -1.7045527291    4.5729733204    0.3654104005
H       -0.0475430412    0.7673369994    3.0957109840
H       -2.2651954731   -0.3821963709    0.0260334110
H       -1.3917821178   -1.7298089541    0.8117576928
H        0.0656913609   -1.9898713758   -1.2001783641
H       -1.2125360015   -1.1484852613   -2.1236012971
H        0.6380856191   -0.3489343569    1.0072903129
H        1.1114263318    0.1822495596   -1.2713880206
H       -2.1211487705    5.5784674137    2.4945222905
H       -1.0262553218    3.7600194663    4.7223868628
23   
torsion grid (-150,)
C       -0.9681180141    2.5371772919    0.3211251477
C       -1.3262916307    3.7379799620    0.9444820292
C       -0.4092349846    1.5902230881    2.4758726686
C       -0.5049948377    1.4582059737    1.0831074936
C       -1.2405646203    3.8562176583    2.3295027721
C       -0.7841478696    2.7769397207    3.1039305023
C       -1.3090620322   -0.8726108168    0.1346784105
C       -0.6010274915   -1.1113397476   -1.2201036037
C       -0.1628055701    0.1427781000    0.4323986598
N        0.1222679482    0.1764282106   -1.0286425646
O       -1.5610450806    5.0107120116    3.0372040032
O       -0.6976009161    2.8879863950    4.4668884352
H       -1.0258143886    2.4313202055   -0.7570858782
H       -1.6649945622    4.5864381681    0.3522277883
H       -0.0520931457    0.7696485385    3.0939540856
H       -2.2712567928   -0.3680245992    0.0236952148
H       -1.4104369201   -1.7206158442    0.8147984773
H        0.0484976630   -1.9981391554   -1.1938596164
H       -1.2212683027   -1.1489875965   -2.1218586082
H        0.6305878418   -0.3561402269    1.0099189960
H        1.1118095851    0.1655472842   -1.2695078553
H       -2.2631477802    5.4892402363    2.5704571041
H       -1.0235484093    3.7744129491    4.7046758557
23   
torsion grid (-135,)
C       -0.9476824147    2.5401253841    0.3126540397
C       -1.3012879821    3.7437922999    0.9318007346
C       -0.4045670690    1.5914175028    2.4727000605
C       -0.4951149772    1.4594570955    1.0802568997
C       -1.2243356486    3.8614896166    2.3174881162
C       -0.7780950534    2.7819614201    3.0965933437
C       -1.3070465799   -0.8691195015    0.1354577793
C       -0.5981259210   -1.1138676648   -1.2178357422
C       -0.1563841342    0.1413212351    0.4328224587
N        0.1316370599    0.1703747630   -1.0274974501
O       -1.5398092851    5.0283851068    3.0156012028
O       -0.7004868193    2.8961800497    4.4587707795
H       -0.9983844832    2.4319924354   -0.7656825490
H       -1.6291520732    4.5958945187    0.3396909401
H       -0.0539691416    0.7697161702    3.0929929943
H       -2.2667714023   -0.3603856775    0.0220757919
H       -1.4132201148   -1.7152339059    0.8171621178
H        0.0466082309   -2.0040503820   -1.1891894857
H       -1.2172832361   -1.1496727496   -2.1203877158
H        0.6334991891   -0.3595302138    1.0133832154
H        1.1215067969    0.1539304784   -1.2665907917
H       -2.3802264177    5.3806892034    2.6844628057
H       -1.0030427769    3.7949435634    4.6837857954
23   
torsion grid (-120,)
C       -0.9323008455    2.5430912274    0.3008338896
C       -1.2836901456    3.7491659808    0.9153937120
C       -0.4081308237    1.5952152968    2.4684445557
C       -0.4925155584    1.4617114591    1.0762018364
C       -1.2160523270    3.8686616778    2.3013242035
C       -0.7780621143    2.7905972095    3.0868556091
C       -1.3124456666   -0.8639327853    0.1332019953
C       -0.5974504101   -1.1168957060   -1.2154188310
C       -0.1570431335    0.1399672637    0.4342111884
N        0.1396135544    0.1630218834   -1.0242683409
O       -1.5316488769    5.0484641548    2.9853452311
O       -0.7038623436    2.9111874398    4.4479588843
H       -0.9746542060    2.4318866585   -0.7775712456
H       -1.6037678080    4.6035718078    0.3232845084
H       -0.0624578017    0.7736262988    3.0916020275
H       -2.2683312808   -0.3495944139    0.0129408994
H       -1.4276628552   -1.7073700665    0.8167215239
H        0.0412087233   -2.0112132211   -1.1808266324
H       -1.2117750078   -1.1509403739   -2.1213089542
H        0.6261917540   -0.3637600076    1.0211861336
H        1.1306786764    0.1396486423   -1.2576904238
H       -2.4620331567    5.2688851659    2.8216791248
H       -0.9661063004    3.8264929496    4.6590336741
23   
torsion grid (-105,)
C       -0.9201177188    2.5476423961    0.2898425154
C       -1.2730758516    3.7565166618    0.8976013779
C       -0.4204726770    1.6018268449    2.4638193809
C       -0.4952449836    1.4644564974    1.0715367680
C       -1.2178577337    3.8794746098    2.2834867111
C       -0.7862332213    2.8027929782    3.0744364065
C       -1.3219505784   -0.8586302878    0.1296398743
C       -0.5980518994   -1.1209365269   -1.2124585316
C       -0.1623342995    0.1387042777    0.4361486650
N        0.1456434656    0.1549170512   -1.0199022113
O       -1.5391289540    5.0708756357    2.9501708960
O       -0.7126658143    2.9308695733    4.4349112353
H       -0.9524557316    2.4334643786   -0.7885715282
H       -1.5871927628    4.6117438115    0.3042468841
H       -0.0799932221    0.7815378665    3.0914938199
H       -2.2734263945   -0.3384590273   -0.0000756077
H       -1.4480721767   -1.6988117806    0.8152215430
H        0.0346054486   -2.0191460762   -1.1696298885
H       -1.2054591296   -1.1542951268   -2.1230020452
H        0.6130205445   -0.3680244471    1.0309570404
H        1.1382693675    0.1246524465   -1.2457389094
H       -2.5050796457    5.1635832501    2.9756728094
H       -0.9215588461    3.8627393992    4.6335821292
23   
torsion grid (-90,)
C       -0.9106346812    2.5489936649    0.2782378309
C       -1.2697292817    3.7594019154    0.8789681274
C       -0.4345897853    1.6069460850    2.4596770382
C       -0.4986028241    1.4660516039    1.0671305265
C       -1.2261688521    3.8859770559    2.2646704562
C       -0.7984568560    2.8122920433    3.0622119061
C       -1.3254676643   -0.8560194352    0.1236465279
C       -0.5899685032   -1.1246842649   -1.2108883712
C       -0.1646563987    0.1373048050    0.4386514332
N        0.1574787628    0.1483520360   -1.0142669972
O       -1.5585723053    5.0861306489    2.9105948062
O       -0.7257803241    2.9471238274    4.4236010496
H       -0.9328426509    2.4315181732   -0.8000964571
H       -1.5830724374    4.6132872082    0.2838047089
H       -0.0969745604    0.7892362578    3.0922559019
H       -2.2735669554   -0.3323867065   -0.0163666198
H       -1.4614163756   -1.6939500927    0.8100960484
H        0.0382758650   -2.0255565472   -1.1599863614
H       -1.1888634866   -1.1574711796   -2.1270553608
H        0.6027148417   -0.3708894294    1.0425390875
H        1.1520743619    0.1132422239   -1.2304854770
H       -2.5032930302    5.0653175913    3.1357653928
H       -0.8613605187    3.8938508104    4.6141509062
23   
torsion grid (-75,)
C       -0.9056445971    2.5493145987    0.2666255863
C       -1.2736377815    3.7605226753    0.8602970501
C       -0.4514780780    1.6146708230    2.4552838866
C       -0.5045053999    1.4678464283    1.0626396927
C       -1.2432476343    3.8936756869    2.2456606415
C       -0.8155122803    2.8239149878    3.0483560663
C       -1.3280210547   -0.8543753374    0.1161551278
C       -0.5779637909   -1.1287698101   -1.2090821582
C       -0.1677981277    0.1361668208    0.4421242789
N        0.1714417939    0.1422489981   -1.0069128427
O       -1.5882454834    5.1009191010    2.8671197935
O       -0.7462216533    2.9641187789    4.4125935804
H       -0.9182830633    2.4285197743   -0.8115540750
H       -1.5887164973    4.6109692466    0.2616045074
H       -0.1158099610    0.8011013015    3.0942750481
H       -2.2728379155   -0.3282479497   -0.0360995412
H       -1.4744472550   -1.6901789897    0.8030576593
H        0.0466123944   -2.0316110233   -1.1487556523
H       -1.1662853343   -1.1617407750   -2.1320599091
H        0.5907602277   -0.3728904947    1.0564351578
H        1.1683717272    0.1033270850   -1.2114235843
H       -2.4552311541    4.9916191674    3.2925150415
H       -0.7847730062    3.9195422479    4.6002100570
23   
torsion grid (-60,)
C       -0.9071191111    2.5482080396    0.2552619516
C       -1.2851695921    3.7593633772    0.8421953925
C       -0.4714679989    1.6252171614    2.4505517794
C       -0.5131772841    1.4697023874    1.0582128699
C       -1.2675493095    3.8996724088    2.2275873386
C       -0.8382473882    2.8357083284    3.0372083929
C       -1.3295568947   -0.8535290771    0.1069005221
C       -0.5617124554   -1.1331762779   -1.2069810411
C       -0.1717531949    0.1353314737    0.4466198528
N        0.1878596049    0.1366031642   -0.9976274141
O       -1.6316093301    5.1091956446    2.8230255296
O       -0.7796682686    2.9782862658    4.4069685699
H       -0.9115876771    2.4241651786   -0.8227186053
H       -1.6044820126    4.6045845315    0.2386489008
H       -0.1374420562    0.8163124304    3.0962488701
H       -2.2709865756   -0.3257334103   -0.0598304682
H       -1.4874682517   -1.6872551400    0.7938094833
H        0.0597830359   -2.0373507209   -1.1356313608
H       -1.1371174261   -1.1671146588   -2.1380297069
H        0.5768486330   -0.3740220519    1.0729008789
H        1.1874619675    0.0948121019   -1.1880906549
H       -2.3712363164    4.9414780269    3.4311871161
H       -0.6807039242    3.9279057918    4.5969463580
23   
torsion grid (-45,)
C       -1.1829419877    2.3631095782    0.4822287976
C       -1.3108201087    3.6475519564    1.0226161723
C       -0.5478816828    1.5089552513    2.6484854981
C       -0.7979072076    1.2851870356    1.2871407266
C       -1.0636419893    3.8671765830    2.3760321985
C       -0.6679519266    2.7881284620    3.1869529897
C        0.8492048931   -0.5401774989    0.3208050770
C        0.4636917617   -1.9079898546    0.9321662743
C       -0.5950317997   -0.0847242178    0.6957717746
N       -0.6594219784   -1.2341786108    1.6425027398
O       -1.0973044012    5.1495760430    2.8817461528
O       -0.4563311868    3.0765167416    4.5206289628
H       -1.3867060365    2.2040261389   -0.5743416979
H       -1.6055385157    4.4937100505    0.4084044279
H       -0.2623448594    0.6631658477    3.2712790184
H        1.6016945038   -0.0115449904    0.9099403856
H        1.1192653410   -0.5112420206   -0.7365688136
H        0.1406491439   -2.6253899899    0.1643683410
H        1.1868937812   -2.3950500620    1.5947118501
H       -1.2591851613   -0.2092855506   -0.1729619132
H       -1.5451210736   -1.7373571983    1.6402378957
H       -1.5200200778    5.1255165423    3.7562990479
H       -0.2534153598    2.2515006709    4.9890435302
23   
torsion grid (-30,)
C       -1.1889960269    2.3625247045    0.4732723583
C       -1.3247117559    3.6474533472    1.0106257307
C       -0.5565629707    1.5130155569    2.6420966680
C       -0.8013801646    1.2866213165    1.2797497963
C       -1.0813499441    3.8696732565    2.3644762097
C       -0.6856545351    2.7917770917    3.1760519606
C        0.8544844102   -0.5375951743    0.3231262946
C        0.4676687296   -1.9051049182    0.9342869876
C       -0.5919799183   -0.0831998386    0.6909286573
N       -0.6589790122   -1.2315094395    1.6391753824
O       -1.1479153400    5.1443539813    2.8757868511
O       -0.4808855315    3.0924860046    4.5109523383
H       -1.3899954530    2.2015281474   -0.5835858238
H       -1.6251838064    4.4897746167    0.3940417089
H       -0.2703295780    0.6695617384    3.2676337502
H        1.6036747724   -0.0075044063    0.9151960823
H        1.1295491361   -0.5096285144   -0.7330062040
H        0.1484454699   -2.6235560735    0.1658480495
H        1.1884777883   -2.3909736166    1.6003364229
H       -1.2518978211   -0.2105180110   -0.1806633545
H       -1.5441670537   -1.7355995073    1.6340563230
H       -1.3642027578    5.0787800101    3.8214958461
H       -0.2843318359    2.2733228335    4.9918499495
23   
torsion grid (-15,)
C       -1.1958349359    2.3607160177    0.4708552597
C       -1.3364878898    3.6460422927    1.0057287031
C       -0.5669578553    1.5145425346    2.6409923714
C       -0.8067527214    1.2856381870    1.2779487809
C       -1.0971175271    3.8703587241    2.3602148439
C       -0.7065166229    2.7921200085    3.1730434451
C        0.8578049310   -0.5350982379    0.3278132067
C        0.4723028060   -1.9029602555    0.9389983469
C       -0.5909407199   -0.0836769997    0.6904780818
N       -0.6584449832   -1.2315587564    1.6394001288
O       -1.2047697615    5.1360584575    2.8791852494
O       -0.5037642395    3.1012955382    4.5083770686
H       -1.3937824520    2.1987781574   -0.5864527910
H       -1.6399141163    4.4857117681    0.3870227957
H       -0.2805641943    0.6728301859    3.2686925256
H        1.6038809159   -0.0026307072    0.9217146322
H        1.1362626156   -0.5076141821   -0.7274633013
H        0.1575690443   -2.6230434846    0.1702316923
H        1.1920600630   -2.3863492158    1.6080087839
H       -1.2475895516   -0.2133735602   -0.1832421541
H       -1.5423767030   -1.7378189394    1.6314471113
H       -1.2100940316    5.0585225155    3.8489828942
H       -0.3089956996    2.2870962079    4.9980510210
23   
torsion grid (0,)
C       -1.1966941411    2.3610793482    0.4649597617
C       -1.3418750813    3.6458691834    0.9996194123
C       -0.5799984916    1.5113522823    2.6378127358
C       -0.8096701729    1.2854088203    1.2724283683
C       -1.1103288341    3.8675248817    2.3560469685
C       -0.7318901097    2.7867264545    3.1709359619
C        0.8631064681   -0.5308217041    0.3264585690
C        0.4769239372   -1.9003750644    0.9331624861
C       -0.5879353920   -0.0823744036    0.6838402624
N       -0.6570780339   -1.2317401550    1.6309749651
O       -1.2616994919    5.1237737313    2.8844021830
O       -0.5361842035    3.0972117417    4.5077003216
H       -1.3872608724    2.2002696818   -0.5938852464
H       -1.6429265151    4.4858974244    0.3802053832
H       -0.2982927747    0.6687017974    3.2663879649
H        1.6055338557    0.0016538411    0.9249489684
H        1.1465663274   -0.5006109316   -0.7274294191
H        0.1653899910   -2.6186949662    0.1614216233
H        1.1947483086   -2.3850738902    1.6033132898
H       -1.2406682179   -0.2124092389   -0.1927543124
H       -1.5402305810   -1.7393068738    1.6187393501
H       -1.0646090916    5.0690957370    3.8357197464
H       -0.2941224361    2.2924160849    4.9916703734
23   
torsion grid (15,)
C       -1.2003645425    2.3586742259    0.4750608679
C       -1.3467756798    3.6424923339    1.0117924676
C       -0.5967147527    1.5058230786    2.6506980186
C       -0.8171269577    1.2824181331    1.2834845271
C       -1.1222783192    3.8630740396    2.3694839915
C       -0.7577683714    2.7791477498    3.1868357684
C        0.8633665726   -0.5266042040    0.3374463989
C        0.4812215356   -1.8983924963    0.9420059413
C       -0.5896726212   -0.0838602091    0.6935005253
N       -0.6561364258   -1.2346294096    1.6386824324
O       -1.3143158740    5.1115766495    2.9055798683
O       -0.5676641418    3.0854030896    4.5245809622
H       -1.3846184350    2.1998198016   -0.5851926159
H       -1.6434557316    4.4838405861    0.3920862163
H       -0.3209231004    0.6615016588    3.2796855351
H        1.6033052920    0.0075039788    0.9375732107
H        1.1478059487   -0.4941463692   -0.7161021551
H        0.1738788050   -2.6172371195    0.1690823994
H        1.1998445465   -2.3807642813    1.6129857810
H       -1.2406526312   -0.2148191522   -0.1842848244
H       -1.5375974263   -1.7450331801    1.6258236752
H       -0.9284751725    5.1125956004    3.7986227483
H       -0.2695475008    2.2909752899    4.9942906290
23   
torsion grid (30,)
C       -1.2042429158    2.3576716804    0.4778709119
C       -1.3539481596    3.6393597985    1.0190494127
C       -0.6050995432    1.4998696792    2.6530381899
C       -0.8205399687    1.2804702746    1.2845457704
C       -1.1333424355    3.8562234380    2.3777117391
C       -0.7747155064    2.7701497854    3.1956707179
C        0.8672578914   -0.5219956327    0.3396315677
C        0.4853174465   -1.8966797861    0.9377695852
C       -0.5881535735   -0.0835684709    0.6910901406
N       -0.6562217917   -1.2375946966    1.6319731555
O       -1.3664307129    5.0970179719    2.9225166543
O       -0.5844328235    3.0669979039    4.5335126306
H       -1.3853119193    2.2014472568   -0.5832813654
H       -1.6522127282    4.4825115979    0.4025138887
H       -0.3305734858    0.6533790332    3.2797358258
H        1.6036005042    0.0114088081    0.9447841337
H        1.1560092077   -0.4851834978   -0.7125926556
H        0.1826991536   -2.6134338443    0.1610582294
H        1.2021435828   -2.3798949870    1.6100505587
H       -1.2351507085   -0.2125888371   -0.1898859202
H       -1.5366335045   -1.7496195749    1.6138907957
H       -0.8142203124    5.1855555374    3.7178129958
H       -0.2831586264    2.2680640197    4.9937769572
23   
torsion grid (45,)
C       -1.2050899312    2.3564691207    0.4872311087
C       -1.3570601149    3.6352992024    1.0344554039
C       -0.6129741001    1.4921515852    2.6616881032
C       -0.8231411098    1.2773877444    1.2921151383
C       -1.1406332172    3.8483543609    2.3942621712
C       -0.7863122403    2.7600558807    3.2120176600
C        0.8681003825   -0.5175949970    0.3411179225
C        0.4904481680   -1.8952470935    0.9352477015
C       -0.5883919834   -0.0847170470    0.6946789282
N       -0.6527553140   -1.2416552590    1.6318272007
O       -1.4034905321    5.0846305375    2.9458204894
O       -0.5977525575    3.0423138175    4.5503504208
H       -1.3833008600    2.2036541233   -0.5748550140
H       -1.6568696917    4.4809431772    0.4220083713
H       -0.3406315227    0.6427752946    3.2855059927
H        1.6031380636    0.0160356373    0.9476341465
H        1.1561504345   -0.4766397161   -0.7111272751
H        0.1896806408   -2.6105394787    0.1564906206
H        1.2090176522   -2.3782600739    1.6057830367
H       -1.2355665819   -0.2124272739   -0.1863244472
H       -1.5316812562   -1.7561417791    1.6126899006
H       -0.7166420578    5.2815906874    3.6041128534
H       -0.3112718553    2.2327913259    5.0018123791
23   
torsion grid (60,)
C       -1.0902503515    2.5092063028    0.2645507659
C       -1.4998799584    3.7045433982    0.8624337188
C       -0.4032255906    1.6618908171    2.4250845331
C       -0.5290105648    1.4861151499    1.0403877563
C       -1.3642429046    3.8768679350    2.2377168894
C       -0.8344863749    2.8434521933    3.0267571519
C       -1.2205527656   -0.9099900233    0.1743950569
C       -0.5362060726   -1.1444550823   -1.1933310587
C       -0.1259980451    0.1751833417    0.4150917230
N        0.1199449141    0.1851499205   -1.0529125870
O       -1.7805041997    5.0609233624    2.8497359341
O       -0.7170513708    2.9978826217    4.3914882757
H       -1.1791182794    2.3628740017   -0.8069609700
H       -1.9158803013    4.5183738621    0.2748192215
H        0.0139333959    0.8799805833    3.0555830224
H       -2.2125078207   -0.4634842177    0.0781130196
H       -1.2552989146   -1.7440887355    0.8779339881
H        0.1614196612   -1.9937782289   -1.1641903752
H       -1.1772561101   -1.2381648625   -2.0761485006
H        0.7084266995   -0.2614694114    0.9851958076
H        1.1019720562    0.2222905820   -1.3202663945
H       -1.0173389828    5.4570359811    3.3033235580
H       -1.3776000843    3.6575869159    4.6670406234
23   
torsion grid (75,)
C       -1.0849755658    2.5089023714    0.2772692366
C       -1.5033642258    3.6970212382    0.8838011009
C       -0.4102974438    1.6446348361    2.4367863756
C       -0.5290442044    1.4803566405    1.0502648964
C       -1.3770065537    3.8567177338    2.2610674724
C       -0.8442100227    2.8221826262    3.0465858744
C       -1.2164614323   -0.9085626654    0.1640661822
C       -0.5250171218   -1.1345138492   -1.2015293635
C       -0.1222462752    0.1739205291    0.4177385456
N        0.1316013279    0.1935513152   -1.0487671002
O       -1.8021182894    5.0295742995    2.8984566021
O       -0.7390654674    2.9669359277    4.4081441461
H       -1.1671427242    2.3701209334   -0.7956930891
H       -1.9244150194    4.5118093138    0.3008391087
H        0.0073653648    0.8584863198    3.0615918063
H       -2.2074172105   -0.4603963427    0.0654843267
H       -1.2557587481   -1.7471418010    0.8619621544
H        0.1717605649   -1.9845834899   -1.1742511196
H       -1.1614037877   -1.2218349491   -2.0883598438
H        0.7087381063   -0.2670048228    0.9895079892
H        1.1151146558    0.2312924345   -1.3105063200
H       -1.0176567686    5.5432147525    3.1542958031
H       -1.3031825615    3.7218924577    4.6556207207
23   
torsion grid (90,)
C       -1.0797737238    2.5061076665    0.2900711700
C       -1.5027081894    3.6889964138    0.9037940466
C       -0.4227107498    1.6218148023    2.4483749266
C       -0.5347428464    1.4692618763    1.0601799693
C       -1.3844097781    3.8370459386    2.2830870408
C       -0.8530450425    2.7983591029    3.0640095638
C       -1.2274498371   -0.9100861378    0.1540785899
C       -0.5305950364   -1.1294032803   -1.2098538636
C       -0.1297603726    0.1657524815    0.4205147412
N        0.1317067259    0.1943860486   -1.0445178821
O       -1.8103739838    4.9985341681    2.9445745682
O       -0.7509666657    2.9375789820    4.4231073445
H       -1.1552627760    2.3752819218   -0.7843373200
H       -1.9247681967    4.5053588021    0.3233208092
H       -0.0071867025    0.8309221760    3.0686152703
H       -2.2160555779   -0.4570653930    0.0542568009
H       -1.2734375113   -1.7533511021    0.8458673572
H        0.1619781955   -1.9829745848   -1.1855454592
H       -1.1632129243   -1.2072206325   -2.1002603442
H        0.6963881322   -0.2825358193    0.9935240500
H        1.1167871734    0.2287555356   -1.3007621060
H       -1.0627310059    5.6164797094    2.9984928756
H       -1.2372138082    3.7506529086    4.6542789004
23   
torsion grid (105,)
C       -1.0706888641    2.5053443449    0.3035676866
C       -1.4943271325    3.6847642023    0.9237714752
C       -0.4291186818    1.6041911430    2.4593490725
C       -0.5367104786    1.4600575323    1.0699762082
C       -1.3813093871    3.8235454256    2.3047141692
C       -0.8523347136    2.7803965317    3.0810040719
C       -1.2391286143   -0.9087662511    0.1437196783
C       -0.5354412532   -1.1234286789   -1.2174302761
C       -0.1363310681    0.1582791654    0.4240577046
N        0.1343369683    0.1949623908   -1.0392480465
O       -1.8050724330    4.9733859755    2.9865402451
O       -0.7456567794    2.9157481391    4.4386466001
H       -1.1415577596    2.3822700065   -0.7720545574
H       -1.9156330870    4.5025962954    0.3442330853
H       -0.0153306544    0.8094562211    3.0758240809
H       -2.2242561367   -0.4488529472    0.0410671143
H       -1.2945938810   -1.7563312849    0.8295315223
H        0.1515024322   -1.9815820968   -1.1946874280
H       -1.1631007153   -1.1912513437   -2.1121698738
H        0.6834322044   -0.2991875433    0.9989926821
H        1.1212398701    0.2243759288   -1.2890470077
H       -1.1514322389    5.6775368999    2.8475737498
H       -1.1666435889    3.7665517424    4.6632027122
23   
torsion grid (120,)
C       -1.0658287855    2.5088706495    0.3156097996
C       -1.4867557698    3.6878322568    0.9391235821
C       -0.4394807870    1.5951657466    2.4689530913
C       -0.5440756151    1.4556415273    1.0787259888
C       -1.3790918555    3.8195238188    2.3214372920
C       -0.8541824758    2.7718586084    3.0947336216
C       -1.2595207416   -0.9030122560    0.1347379073
C       -0.5472218949   -1.1163422319   -1.2220919627
C       -0.1505884331    0.1539328445    0.4288106036
N        0.1307490858    0.1963001522   -1.0325359387
O       -1.7926741787    4.9607844281    3.0185980896
O       -0.7420317568    2.9034331722    4.4520870177
H       -1.1323591030    2.3923161776   -0.7610016087
H       -1.9029588972    4.5075295104    0.3577149879
H       -0.0284461029    0.7974396630    3.0833926768
H       -2.2401372194   -0.4346915231    0.0268418518
H       -1.3270755517   -1.7535477567    0.8157898190
H        0.1333575260   -1.9795403291   -1.1982122545
H       -1.1684863260   -1.1754445678   -2.1219202452
H        0.6614911955   -0.3134907366    1.0066931979
H        1.1196740713    0.2196134214   -1.2749794097
H       -1.2823611423    5.7241260969    2.7057023313
H       -1.1056039534    3.7804212642    4.6750322299
23   
torsion grid (135,)
C       -1.0485136755    2.5108520559    0.3246632761
C       -1.4643044390    3.6907280015    0.9507199464
C       -0.4349044752    1.5861986764    2.4763598255
C       -0.5376452405    1.4512546667    1.0851230514
C       -1.3609530411    3.8151898401    2.3341166070
C       -0.8416828075    2.7629405419    3.1055935622
C       -1.2645107480   -0.8999217940    0.1294513706
C       -0.5489401801   -1.1116195994   -1.2258977526
C       -0.1506816927    0.1496107737    0.4316815598
N        0.1358616425    0.1963230906   -1.0286774539
O       -1.7646436057    4.9480624050    3.0422480689
O       -0.7259579812    2.8900886701    4.4639300588
H       -1.1117557928    2.3997846050   -0.7527268614
H       -1.8728337910    4.5135694950    0.3673104807
H       -0.0280429647    0.7852659309    3.0894401636
H       -2.2421930823   -0.4257451940    0.0204124126
H       -1.3389886183   -1.7530519918    0.8065584609
H        0.1266062815   -1.9788180050   -1.2034142666
H       -1.1674951143   -1.1634536504   -2.1280675586
H        0.6568129632   -0.3250683453    1.0101414175
H        1.1257551285    0.2148825346   -1.2675818020
H       -1.4376720736    5.7406115102    2.5893863651
H       -1.0502220812    3.7805017607    4.6917761233
23   
torsion grid (150,)
C       -1.0368891199    2.5182888241    0.3294267429
C       -1.4428417436    3.7008173846    0.9583924305
C       -0.4404706046    1.5838622961    2.4797506833
C       -0.5396266655    1.4516651799    1.0872471077
C       -1.3463634794    3.8212219303    2.3425191235
C       -0.8393123746    2.7607453392    3.1114740285
C       -1.2811391652   -0.8942891207    0.1272509850
C       -0.5647593484   -1.1088111031   -1.2271703302
C       -0.1615854754    0.1483947928    0.4321458422
N        0.1263391930    0.1955437499   -1.0280803893
O       -1.7332097764    4.9501559522    3.0579671714
O       -0.7274213682    2.8805129534    4.4718719658
H       -1.0968380020    2.4127960374   -0.7487097257
H       -1.8378693808    4.5289841939    0.3722314943
H       -0.0425279341    0.7783344787    3.0927054472
H       -2.2556447675   -0.4138530596    0.0169425737
H       -1.3621466815   -1.7476860463    0.8033084329
H        0.1064600845   -1.9793799915   -1.2040158892
H       -1.1821039741   -1.1571775861   -2.1303821648
H        0.6427365290   -0.3325440468    1.0099460981
H        1.1165537258    0.2093474537   -1.2660657400
H       -1.6122550049    5.7377072069    2.5057431919
H       -1.0211896851    3.7788230464    4.7069799280
23   
torsion grid (165,)
C       -1.0211508955    2.5236973604    0.3318579430
C       -1.4149501478    3.7110444609    0.9604856897
C       -0.4362808476    1.5835704603    2.4808697645
C       -0.5340300063    1.4519086743    1.0876763252
C       -1.3225016874    3.8297018427    2.3448413426
C       -0.8277041259    2.7619965764    3.1126364763
C       -1.2913745627   -0.8898651318    0.1275397176
C       -0.5766826001   -1.1085838429   -1.2270804475
C       -0.1655617115    0.1462161577    0.4320694092
N        0.1215508528    0.1919960957   -1.0284491322
O       -1.6902821084    4.9591759695    3.0628503976
O       -0.7200137631    2.8762256930    4.4746934582
H       -1.0803830931    2.4206336523   -0.7465232119
H       -1.7953019611    4.5445698821    0.3713757715
H       -0.0484967921    0.7739331733    3.0949600407
H       -2.2629497560   -0.4034484763    0.0173994375
H       -1.3774674559   -1.7428567913    0.8035145196
H        0.0898210443   -1.9827923007   -1.2038508789
H       -1.1945107513   -1.1539043669   -2.1301405621
H        0.6363618923   -0.3400908641    1.0087604761
H        1.1116567350    0.2005766310   -1.2671723185
H       -1.7895879010    5.7092708639    2.4566890810
H       -1.0103374516    3.7728817556    4.7177051635
23   
torsion grid (180,)
C       -1.0055907852    2.5284413936    0.3289391857
C       -1.3855148882    3.7204720367    0.9573965845
C       -0.4286826687    1.5856781151    2.4794110080
C       -0.5266658594    1.4541212793    1.0859995506
C       -1.2938438402    3.8383709362    2.3419021436
C       -0.8129867272    2.7657363896    3.1118472684
C       -1.3013128992   -0.8839716323    0.1296364803
C       -0.5890625720   -1.1096317880   -1.2251320772
C       -0.1683928808    0.1450373264    0.4315654034
N        0.1170256308    0.1870338979   -1.0293426065
O       -1.6423254770    4.9731067219    3.0586634132
O       -0.7118283771    2.8761668290    4.4751733275
H       -1.0657107561    2.4254465031   -0.7494215042
H       -1.7512621161    4.5597107509    0.3668445106
H       -0.0519877276    0.7715660224    3.0944675072
H       -2.2695744170   -0.3910136674    0.0192371942
H       -1.3929189537   -1.7353247019    0.8069719071
H        0.0721948983   -1.9878029997   -1.2004508254
H       -1.2077412942   -1.1531170700   -2.1277079703
H        0.6310751882   -0.3459139699    1.0077295301
H        1.1067487779    0.1900174235   -1.2697648004
H       -1.9609966728    5.6559763193    2.4486039972
H       -1.0173548881    3.7661310845    4.7231562003
