25
-2 1 C12H8O4S
C                     1.635019947270    -1.065272915943    -0.129538215460
C                     1.043232494615    -0.025391282553     0.614472062569
C                     1.293282712810     0.025635942345     1.993128892732
C                     2.096082642156    -0.920931851740     2.625741488756
C                     2.745357033545    -2.015166662882     1.904186565198
C                     2.444371265112    -2.013360776858     0.479772369015
O                     3.491081755776    -2.891865337722     2.428813534495
S                     2.308327239188    -0.837814775734     4.412347565963
O                     1.674030557859    -2.054335640335     4.998111367970
O                     3.719198832739    -0.583728618205     4.779088042619
C                     1.294723688813     0.555202140599     4.985329409952
C                     0.176333086319     0.210537804733     5.747257993467
C                    -0.636888236759     1.176399680383     6.352641384524
C                    -0.290574333816     2.533878050101     6.180039838932
C                     0.810190831028     2.902046612004     5.423550842595
C                     1.677552639662     1.944746394989     4.746110237444
O                     2.631239274842     2.321639115264     4.009132391163
H                     1.455514464739    -1.126983323832    -1.206912144186
H                     0.421018135529     0.731006531259     0.139600319034
H                     0.856951464122     0.825302110708     2.582214213088
H                     2.899640120429    -2.816613020424    -0.100525408122
H                    -0.038447968211    -0.848180928658     5.866712885347
H                    -1.504142717671     0.883000931998     6.942211103115
H                    -0.903348033878     3.310308137103     6.646988132715
H                     1.067608243767     3.952325625064     5.284678592026
