25
-2 1 C12H8O4S
C                     1.682679403731    -1.122570599740    -0.132669118886
C                     0.753039570565    -1.879845662365     0.612602654112
C                     0.831037576739    -1.825782193260     2.008899500757
C                     1.805968830099    -1.065454460769     2.655683139685
C                     2.760460206230    -0.222780123706     1.940499213404
C                     2.639253039269    -0.337657018868     0.492508431493
O                     3.613392019093     0.539074147453     2.480231784309
S                     1.826380274636    -1.148328109966     4.444099653840
O                     0.875176030918    -2.215241321800     4.857876808882
O                     3.225657420873    -1.327292392379     4.917723322340
C                     1.246738751325     0.435299263167     5.045673027191
C                     2.197965194027     1.256979229953     5.651340253029
C                     1.849322085841     2.493763332429     6.205879869052
C                     0.500700496889     2.902106652450     6.118814982885
C                    -0.452623175643     2.112755465575     5.494253103732
C                    -0.150797126716     0.825547061547     4.880672212628
O                    -1.033616079963     0.150735742160     4.276956692887
H                     1.643287563296    -1.147025291548    -1.225772549151
H                    -0.018914047659    -2.470090219486     0.121132521224
H                     0.126617220758    -2.370499190148     2.630828934958
H                     3.343824671138     0.255995772870    -0.090874967376
H                     3.225016275056     0.904071805424     5.670385018043
H                     2.603852068144     3.128927202913     6.667496787106
H                     0.201525123069     3.864722671509     6.544116241714
H                    -1.489205214495     2.442757655627     5.418266219672
