
  -OEChem-12102412483D

 25 26  0     0  0  0  0  0  0999 V2000
    1.6827   -1.1226   -0.1327 C   0  0  0  0  0  0  0  0  0  0  0  0
    0.7530   -1.8798    0.6126 C   0  0  0  0  0  0  0  0  0  0  0  0
    0.8310   -1.8258    2.0089 C   0  0  0  0  0  0  0  0  0  0  0  0
    1.8060   -1.0655    2.6557 C   0  0  0  0  0  0  0  0  0  0  0  0
    2.7605   -0.2228    1.9405 C   0  0  0  0  0  0  0  0  0  0  0  0
    2.6393   -0.3377    0.4925 C   0  0  0  0  0  0  0  0  0  0  0  0
    3.6134    0.5391    2.4802 O   0  5  0  0  0  0  0  0  0  0  0  0
    1.8264   -1.1483    4.4441 S   0  0  0  0  0  0  0  0  0  0  0  0
    0.8752   -2.2152    4.8579 O   0  0  0  0  0  0  0  0  0  0  0  0
    3.2257   -1.3273    4.9177 O   0  0  0  0  0  0  0  0  0  0  0  0
    1.2467    0.4353    5.0457 C   0  0  0  0  0  0  0  0  0  0  0  0
    2.1980    1.2570    5.6513 C   0  0  0  0  0  0  0  0  0  0  0  0
    1.8493    2.4938    6.2059 C   0  0  0  0  0  0  0  0  0  0  0  0
    0.5007    2.9021    6.1188 C   0  0  0  0  0  0  0  0  0  0  0  0
   -0.4526    2.1128    5.4943 C   0  0  0  0  0  0  0  0  0  0  0  0
   -0.1508    0.8255    4.8807 C   0  0  0  0  0  0  0  0  0  0  0  0
   -1.0336    0.1507    4.2770 O   0  5  0  0  0  0  0  0  0  0  0  0
    1.6433   -1.1470   -1.2258 H   0  0  0  0  0  0  0  0  0  0  0  0
   -0.0189   -2.4701    0.1211 H   0  0  0  0  0  0  0  0  0  0  0  0
    0.1266   -2.3705    2.6308 H   0  0  0  0  0  0  0  0  0  0  0  0
    3.3438    0.2560   -0.0909 H   0  0  0  0  0  0  0  0  0  0  0  0
    3.2250    0.9041    5.6704 H   0  0  0  0  0  0  0  0  0  0  0  0
    2.6039    3.1289    6.6675 H   0  0  0  0  0  0  0  0  0  0  0  0
    0.2015    3.8647    6.5441 H   0  0  0  0  0  0  0  0  0  0  0  0
   -1.4892    2.4428    5.4183 H   0  0  0  0  0  0  0  0  0  0  0  0
  1  2  1  0  0  0  0
  1  6  2  0  0  0  0
  1 18  1  0  0  0  0
  2  3  2  0  0  0  0
  2 19  1  0  0  0  0
  3  4  1  0  0  0  0
  3 20  1  0  0  0  0
  4  5  2  0  0  0  0
  4  8  1  0  0  0  0
  5  6  1  0  0  0  0
  5  7  1  0  0  0  0
  6 21  1  0  0  0  0
  8  9  2  0  0  0  0
  8 10  2  0  0  0  0
  8 11  1  0  0  0  0
 11 12  1  0  0  0  0
 11 16  2  0  0  0  0
 12 13  2  0  0  0  0
 12 22  1  0  0  0  0
 13 14  1  0  0  0  0
 13 23  1  0  0  0  0
 14 15  2  0  0  0  0
 14 24  1  0  0  0  0
 15 16  1  0  0  0  0
 15 25  1  0  0  0  0
 16 17  1  0  0  0  0
M  CHG  2   7  -1  17  -1
M  END
$$$$
