
  -OEChem-12102412483D

 25 26  0     0  0  0  0  0  0999 V2000
    1.6350   -1.0653   -0.1295 C   0  0  0  0  0  0  0  0  0  0  0  0
    1.0432   -0.0254    0.6145 C   0  0  0  0  0  0  0  0  0  0  0  0
    1.2933    0.0256    1.9931 C   0  0  0  0  0  0  0  0  0  0  0  0
    2.0961   -0.9209    2.6257 C   0  0  0  0  0  0  0  0  0  0  0  0
    2.7454   -2.0152    1.9042 C   0  0  0  0  0  0  0  0  0  0  0  0
    2.4444   -2.0134    0.4798 C   0  0  0  0  0  0  0  0  0  0  0  0
    3.4911   -2.8919    2.4288 O   0  5  0  0  0  0  0  0  0  0  0  0
    2.3083   -0.8378    4.4123 S   0  0  0  0  0  0  0  0  0  0  0  0
    1.6740   -2.0543    4.9981 O   0  0  0  0  0  0  0  0  0  0  0  0
    3.7192   -0.5837    4.7791 O   0  0  0  0  0  0  0  0  0  0  0  0
    1.2947    0.5552    4.9853 C   0  0  0  0  0  0  0  0  0  0  0  0
    0.1763    0.2105    5.7473 C   0  0  0  0  0  0  0  0  0  0  0  0
   -0.6369    1.1764    6.3526 C   0  0  0  0  0  0  0  0  0  0  0  0
   -0.2906    2.5339    6.1800 C   0  0  0  0  0  0  0  0  0  0  0  0
    0.8102    2.9020    5.4236 C   0  0  0  0  0  0  0  0  0  0  0  0
    1.6776    1.9447    4.7461 C   0  0  0  0  0  0  0  0  0  0  0  0
    2.6312    2.3216    4.0091 O   0  5  0  0  0  0  0  0  0  0  0  0
    1.4555   -1.1270   -1.2069 H   0  0  0  0  0  0  0  0  0  0  0  0
    0.4210    0.7310    0.1396 H   0  0  0  0  0  0  0  0  0  0  0  0
    0.8570    0.8253    2.5822 H   0  0  0  0  0  0  0  0  0  0  0  0
    2.8996   -2.8166   -0.1005 H   0  0  0  0  0  0  0  0  0  0  0  0
   -0.0384   -0.8482    5.8667 H   0  0  0  0  0  0  0  0  0  0  0  0
   -1.5041    0.8830    6.9422 H   0  0  0  0  0  0  0  0  0  0  0  0
   -0.9033    3.3103    6.6470 H   0  0  0  0  0  0  0  0  0  0  0  0
    1.0676    3.9523    5.2847 H   0  0  0  0  0  0  0  0  0  0  0  0
  1  2  1  0  0  0  0
  1  6  2  0  0  0  0
  1 18  1  0  0  0  0
  2  3  2  0  0  0  0
  2 19  1  0  0  0  0
  3  4  1  0  0  0  0
  3 20  1  0  0  0  0
  4  5  2  0  0  0  0
  4  8  1  0  0  0  0
  5  6  1  0  0  0  0
  5  7  1  0  0  0  0
  6 21  1  0  0  0  0
  8  9  2  0  0  0  0
  8 10  2  0  0  0  0
  8 11  1  0  0  0  0
 11 12  1  0  0  0  0
 11 16  2  0  0  0  0
 12 13  2  0  0  0  0
 12 22  1  0  0  0  0
 13 14  1  0  0  0  0
 13 23  1  0  0  0  0
 14 15  2  0  0  0  0
 14 24  1  0  0  0  0
 15 16  1  0  0  0  0
 15 25  1  0  0  0  0
 16 17  1  0  0  0  0
M  CHG  2   7  -1  17  -1
M  END
$$$$
