17   
torsion grid (-165,)
C        1.2699531663    0.3225393112   -0.1081968767
C       -1.1139364015    0.3334448023    0.5520836646
C        1.2281939065   -1.0206773379   -0.0786379225
C       -1.0736575547   -1.0086533827    0.5629753973
C        0.0320359160    1.1810944403    0.0372416978
C       -0.3364864045    1.9029481474   -1.2770848085
N        0.0434511032   -1.7301906127    0.1290821435
O       -0.9203049673    0.9685642422   -2.1857045770
H        2.2244546440    0.8101795079   -0.2879122069
H       -2.0242249182    0.8296390334    0.8768030439
H        2.1156695821   -1.6300170226   -0.2230760681
H       -1.9133585793   -1.6103590093    0.8978432287
H        0.2080488787    1.9934961055    0.7608328571
H        0.5722227891    2.3583156756   -1.7002004165
H       -1.0511679723    2.7117459852   -1.0531363489
H        0.1313404297   -2.6811991864    0.4584820537
H       -1.0013237502    1.3993700501   -3.0494219942
17   
torsion grid (-150,)
C        1.2805291471    0.3310799270   -0.0717259409
C       -1.1237201377    0.3082029270    0.5051833331
C        1.2586641062   -1.0129994470   -0.0370783780
C       -1.0623712193   -1.0323127886    0.5289760826
C        0.0277800023    1.1735595133    0.0307608992
C       -0.3065043863    1.9022117230   -1.2986605495
N        0.0799206349   -1.7403452230    0.1364786426
O       -1.1369494692    1.0704867695   -2.1124067947
H        2.2336567436    0.8314379609   -0.2216293667
H       -2.0540678438    0.7905507452    0.7900118251
H        2.1600242058   -1.6082861794   -0.1515421169
H       -1.9040043124   -1.6446679571    0.8385656082
H        0.1535314702    1.9780450861    0.7719685519
H        0.6321415244    2.1563789009   -1.8129375464
H       -0.8345336597    2.8421558185   -1.0710920142
H        0.1733937591   -2.6857019041    0.4806401070
H       -1.1865806975    1.4704448775   -2.9935394750
17   
torsion grid (-135,)
C        1.2839012923    0.3425632057   -0.0330001633
C       -1.1380681988    0.2733646841    0.4547055439
C        1.2905480457   -1.0014935533    0.0147284901
C       -1.0476966261   -1.0649415985    0.4977382137
C        0.0114422401    1.1615709243    0.0205128484
C       -0.2779058429    1.8909236290   -1.3311887266
N        0.1229700912   -1.7533295019    0.1543584889
O       -1.3382906845    1.2317137402   -2.0302861664
H        2.2313328455    0.8612546921   -0.1540586974
H       -2.0894253011    0.7361381499    0.6967436946
H        2.2084775246   -1.5769888514   -0.0637439587
H       -1.8872143670   -1.6917636079    0.7831056081
H        0.1061236971    1.9613999739    0.7696738095
H        0.6416366141    1.9022200489   -1.9335434339
H       -0.5637137470    2.9349538101   -1.1295966536
H        0.2247304618   -2.6916343706    0.5152045389
H       -1.3879381774    1.6142893750   -2.9193805686
17   
torsion grid (-120,)
C        1.2779668342    0.3578809615   -0.0022245072
C       -1.1583538264    0.2290883927    0.3972425658
C        1.3218459912   -0.9840821046    0.0726233598
C       -1.0304240910   -1.1051725788    0.4687829778
C       -0.0178585062    1.1450988937    0.0043514427
C       -0.2550752243    1.8649680143   -1.3683731086
N        0.1718938164   -1.7675651129    0.1858493554
O       -1.5044190314    1.4524649386   -1.9339543720
H        2.2146384242    0.9002170340   -0.1023378165
H       -2.1324428440    0.6668928205    0.5856846437
H        2.2581042170   -1.5335263231    0.0336877253
H       -1.8639021842   -1.7508732242    0.7287871863
H        0.0669003054    1.9448257342    0.7541457685
H        0.5701740985    1.6071692462   -2.0470208307
H       -0.2481042707    2.9555843553   -1.2233362449
H        0.2872944993   -2.6915118435    0.5787069558
H       -1.5673283403    1.8387815457   -2.8206422338
17   
torsion grid (-105,)
C        1.2698353388    0.3816076061    0.0305894620
C       -1.1759710900    0.1901849019    0.3509111823
C        1.3480761421   -0.9574167060    0.1218704715
C       -1.0131342574   -1.1397405551    0.4372053595
C       -0.0494181978    1.1323351568   -0.0120689995
C       -0.2421369337    1.8145502704   -1.4047316889
N        0.2158721010   -1.7720149608    0.2000801542
O       -1.6038591388    1.6797235176   -1.8295989175
H        2.1940752499    0.9492861409   -0.0406173077
H       -2.1661888881    0.6038746754    0.5032749185
H        2.2997155665   -1.4812087928    0.1240392372
H       -1.8367011334   -1.8065228507    0.6748610072
H        0.0215727252    1.9448768708    0.7254082990
H        0.4213120442    1.3202041627   -2.1285226372
H        0.0448891194    2.8747311439   -1.3445785941
H        0.3428069377   -2.6863653656    0.6118205255
H       -1.6798357181    2.0821355338   -2.7079696046
17   
torsion grid (-90,)
C        1.2620767006    0.4051281067    0.0552640270
C       -1.1882268445    0.1576821818    0.3141433811
C        1.3688918121   -0.9307482834    0.1607592913
C       -0.9960875961   -1.1677256191    0.4118771617
C       -0.0747552685    1.1214951237   -0.0295123256
C       -0.2425948022    1.7611402836   -1.4337767591
N        0.2540318682   -1.7721155493    0.2110718474
O       -1.6379065394    1.9045151848   -1.7277236844
H        2.1741241915    0.9943583796    0.0068574658
H       -2.1898294168    0.5517093585    0.4407868269
H        2.3319799495   -1.4317566220    0.1985045929
H       -1.8088979626   -1.8533366033    0.6327207711
H       -0.0341324122    1.9519205797    0.6907584972
H        0.2266567883    1.0990315891   -2.1754818426
H        0.2722145058    2.7331218327   -1.4628917742
H        0.3909584988   -2.6802165752    0.6334343407
H       -1.7175936049    2.2860373817   -2.6148189498
17   
torsion grid (-75,)
C        1.2562509210    0.4283613198    0.0819019134
C       -1.1943636799    0.1321968783    0.2932434153
C        1.3860574340   -0.9052861179    0.1897692162
C       -0.9791750578   -1.1897573275    0.3909652534
C       -0.0928307831    1.1123404201   -0.0452331612
C       -0.2530742862    1.7051859209   -1.4609451427
N        0.2863548885   -1.7690357603    0.2079928476
O       -1.6172152690    2.1067362005   -1.6412005986
H        2.1564110924    1.0368920821    0.0626224071
H       -2.2031230588    0.5109944770    0.4107662336
H        2.3569015469   -1.3876487512    0.2584745115
H       -1.7807826408   -1.8918970273    0.6007470521
H       -0.1010229722    1.9654161503    0.6494209363
H        0.0176558601    0.9352933484   -2.1975615829
H        0.4318034620    2.5584843673   -1.5816645946
H        0.4325300280   -2.6749588854    0.6322397930
H       -1.7114676173    2.4569234545   -2.5395656320
17   
torsion grid (-60,)
C        1.2489807459    0.4466107227    0.1000961758
C       -1.1985435151    0.1035780238    0.2738649470
C        1.4014529156   -0.8840600581    0.2155511218
C       -0.9615866663   -1.2143110119    0.3785147323
C       -0.1091899173    1.1000696545   -0.0619085914
C       -0.2715354310    1.6624131983   -1.4847939236
N        0.3176910333   -1.7689716386    0.2148424286
O       -1.5484510300    2.3089952703   -1.5686506012
H        2.1364811548    1.0734987843    0.0990460952
H       -2.2145493373    0.4670741440    0.3809896165
H        2.3791993789   -1.3481140164    0.3079552434
H       -1.7521930781   -1.9310659824    0.5806978051
H       -0.1736712125    1.9677020332    0.6114157070
H       -0.2014134091    0.8369487012   -2.2070938552
H        0.5422892300    2.3753203381   -1.6903923998
H        0.4746655416   -2.6710698980    0.6434779284
H       -1.6787165357    2.6056224847   -2.4816395626
17   
torsion grid (-45,)
C        1.2367985222    0.4605263109    0.1095180109
C       -1.2042754322    0.0656974737    0.2504446419
C        1.4157594035   -0.8653514134    0.2428555882
C       -0.9422248392   -1.2459889668    0.3746145577
C       -0.1301394793    1.0823908058   -0.0810620210
C       -0.2980122821    1.6334955326   -1.5083914704
N        0.3511451900   -1.7731121786    0.2390220910
O       -1.4322024415    2.5114993117   -1.5130934711
H        2.1104416769    1.1065242203    0.1117525268
H       -2.2291192126    0.4102344526    0.3416576431
H        2.4017254376   -1.3074205118    0.3533485164
H       -1.7203803394   -1.9774508743    0.5724371721
H       -0.2493081013    1.9541176592    0.5790619212
H       -0.4342065511    0.7989928566   -2.2099259475
H        0.6127647825    2.1824309440   -1.7956043371
H        0.5214546746   -2.6689628973    0.6753023954
H       -1.6193111409    2.7626180243   -2.4299649504
17   
torsion grid (-30,)
C        1.2149955193    0.4767519893    0.1144282680
C       -1.2136384182    0.0172666458    0.2333638844
C        1.4285129136   -0.8420270381    0.2665143246
C       -0.9194174269   -1.2857765079    0.3784193647
C       -0.1643218410    1.0607064122   -0.0981309248
C       -0.3404648159    1.6066786973   -1.5318900024
N        0.3887100360   -1.7781874420    0.2665746036
O       -1.2726003679    2.6966257091   -1.4807841100
H        2.0705932229    1.1465158754    0.1134781551
H       -2.2491280437    0.3345576887    0.3108530962
H        2.4251035470   -1.2560799298    0.3890314380
H       -1.6805985352   -2.0350836376    0.5753358252
H       -0.3261954990    1.9316706512    0.5528453386
H       -0.6944310822    0.8052891511   -2.1945554766
H        0.6325013095    1.9587755648   -1.9090031252
H        0.5786191930   -2.6640329445    0.7148930854
H       -1.4873298437    2.9565898646   -2.3894008774
17   
torsion grid (-15,)
C        1.1683253360   -0.1838962726   -0.5356237234
C       -0.8156211441    0.6003867758    0.7144136335
C        0.8665019463   -1.4354725756   -0.1478956429
C       -1.0535324612   -0.6766285936    1.0598483405
C        0.2534215565    0.9954437985   -0.2852605283
C       -0.3606375960    1.5440310411   -1.5992296012
N       -0.3093002195   -1.7451653152    0.5440850441
O       -0.2571068601    2.9759034350   -1.5802108990
H        2.0928484941   -0.0157944934   -1.0812936318
H       -1.4413411491    1.3820123927    1.1359388890
H        1.5152193754   -2.2798722645   -0.3616744047
H       -1.8477966803   -0.9537490887    1.7467802945
H        0.8201732233    1.8423547865    0.1254669528
H       -1.4079594213    1.2228255853   -1.6848225650
H        0.1910059521    1.1353838784   -2.4594587960
H       -0.3083332677   -2.6008796933    1.0818262319
H       -0.7149572166    3.3233573532   -2.3609167263
17   
torsion grid (0,)
C        1.1537418444   -0.1363832715   -0.5229819342
C       -0.8596992475    0.5615058205    0.7296751114
C        0.8957032873   -1.4029559325   -0.1529857417
C       -1.0521706444   -0.7274805937    1.0595823594
C        0.1985844131    1.0088521949   -0.2575712504
C       -0.4246772386    1.5633675824   -1.5683477223
N       -0.2686918746   -1.7617113404    0.5351752567
O       -0.0348611525    2.9383768185   -1.7076266564
H        2.0695281270    0.0710110760   -1.0698564021
H       -1.5136045867    1.3143187942    1.1613976140
H        1.5711659089   -2.2221991709   -0.3811896655
H       -1.8375992370   -1.0402700752    1.7413087549
H        0.7533440473    1.8599045709    0.1601540554
H       -1.5198153451    1.4740499066   -1.5246834342
H       -0.0715943343    0.9720252628   -2.4255568869
H       -0.2413127757   -2.6246676121    1.0603099339
H       -0.4271313240    3.2824967192   -2.5248305245
17   
torsion grid (15,)
C        1.1443078465   -0.0791444934   -0.5057294694
C       -0.8963244098    0.5319479186    0.7497113032
C        0.9198842048   -1.3608487247   -0.1687054558
C       -1.0532235240   -0.7698634164    1.0472421592
C        0.1515001872    1.0307843516   -0.2218098588
C       -0.4808093504    1.5856909073   -1.5244184217
N       -0.2403858240   -1.7690667938    0.5011923816
O        0.1596286668    2.8314009664   -1.8396706383
H        2.0561360124    0.1693061830   -1.0414466262
H       -1.5713711062    1.2547199431    1.1998970635
H        1.6189814618   -2.1557355996   -0.4114882574
H       -1.8298610556   -1.1200680269    1.7208428023
H        0.6951705949    1.8857001009    0.2032851681
H       -1.5591752704    1.7422798738   -1.3697970932
H       -0.3574251368    0.8585173243   -2.3388971594
H       -0.1902132063   -2.6418480846    1.0082905877
H       -0.1759102234    3.1364683197   -2.6965256180
17   
torsion grid (30,)
C        1.1436080835   -0.0204779295   -0.4842268017
C       -0.9220368678    0.5131869762    0.7698189181
C        0.9386310907   -1.3154778321   -0.1901755976
C       -1.0561711088   -0.8003208025    1.0242061741
C        0.1192572870    1.0567622032   -0.1835957711
C       -0.5204210806    1.6077901193   -1.4767222980
N       -0.2248731218   -1.7675821278    0.4488693668
O        0.3125287366    2.6685654422   -1.9671478079
H        2.0567602824    0.2650465143   -0.9976093975
H       -1.6093585097    1.2086856185    1.2436422464
H        1.6566943623   -2.0896556733   -0.4443539976
H       -1.8260257021   -1.1854257885    1.6864871674
H        0.6427895790    1.9175333929    0.2561270905
H       -1.5273137730    1.9916742633   -1.2494073807
H       -0.6206132893    0.8009852197   -2.2153957798
H       -0.1600211898   -2.6526487171    0.9329264890
H       -0.0125249108    2.9315998707   -2.8414697531
17   
torsion grid (45,)
C        1.1447804547    0.0269474219   -0.4670146398
C       -0.9454564735    0.4964310026    0.7760238847
C        0.9573330386   -1.2773498314   -0.2056955355
C       -1.0593134949   -0.8246384005    0.9986518719
C        0.0999398413    1.0785717423   -0.1512542972
C       -0.5415445676    1.6376184340   -1.4338754975
N       -0.2063920430   -1.7639961379    0.4090877172
O        0.4224677621    2.4810549534   -2.0793170731
H        2.0556258881    0.3395758765   -0.9669715262
H       -1.6488672518    1.1684108557    1.2599942812
H        1.6907748131   -2.0337231867   -0.4696239943
H       -1.8281978254   -1.2378216671    1.6450714686
H        0.5937648357    1.9401302574    0.3217428258
H       -1.4403179342    2.2164372705   -1.1683342250
H       -0.8457567607    0.8059627683   -2.0841806675
H       -0.1309155044   -2.6583328776    0.8742317366
H        0.0729850893    2.7349622680   -2.9465634625
17   
torsion grid (60,)
C        1.1541699285    0.0644553150   -0.4449052506
C       -0.9616269258    0.4827671453    0.7746582527
C        0.9765718694   -1.2465846169   -0.2132555867
C       -1.0633464892   -0.8436067722    0.9683203439
C        0.0938793871    1.0963843460   -0.1241289164
C       -0.5492735742    1.6670910700   -1.4000203701
N       -0.1917404666   -1.7608278857    0.3710166059
O        0.4817715891    2.2761323798   -2.1884981621
H        2.0668962284    0.3957365408   -0.9277038065
H       -1.6789714460    1.1363785687    1.2633891709
H        1.7231738136   -1.9886247842   -0.4808913294
H       -1.8361006902   -1.2788366132    1.5954523073
H        0.5494183252    1.9552530574    0.3907918496
H       -1.3170004524    2.4061396997   -1.1221962317
H       -1.0358991413    0.8511028183   -1.9526327777
H       -0.1094126768   -2.6613890104    0.8230946699
H        0.0884005888    2.5786694912   -3.0205179014
17   
torsion grid (75,)
C        1.1624674540    0.0933199809   -0.4265643596
C       -0.9779925538    0.4651173148    0.7642655272
C        0.9987954620   -1.2224086514   -0.2132814364
C       -1.0655681667   -0.8649592158    0.9384054509
C        0.0899104324    1.1093048397   -0.1009622702
C       -0.5501183784    1.7101899827   -1.3700891222
N       -0.1698969481   -1.7615729270    0.3471337801
O        0.4920846359    2.0721272905   -2.2852037455
H        2.0756940523    0.4404512058   -0.8960441195
H       -1.7165288301    1.1006395411    1.2455610206
H        1.7592416890   -1.9502925538   -0.4806589124
H       -1.8464817965   -1.3184810501    1.5420811702
H        0.5104448030    1.9552478678    0.4628469946
H       -1.1595031234    2.5848195412   -1.0954601015
H       -1.2092037510    0.9556815393   -1.8228105341
H       -0.0814324048   -2.6665851632    0.7889210561
H        0.0789972919    2.4276412071   -3.0861675311
17   
torsion grid (90,)
C        1.1672584883    0.1159916216   -0.4100747386
C       -1.0022937311    0.4396100182    0.7399899206
C        1.0257385647   -1.2031877271   -0.2027300371
C       -1.0684267255   -0.8926326844    0.9063796243
C        0.0826272068    1.1166446904   -0.0799516441
C       -0.5406386045    1.7696630380   -1.3424495750
N       -0.1376389990   -1.7684056306    0.3406284362
O        0.4571769437    1.8755976438   -2.3657308094
H        2.0767840105    0.4774654473   -0.8754784857
H       -1.7721492920    1.0562710419    1.1966102276
H        1.8022881063   -1.9145419426   -0.4681955707
H       -1.8620629117   -1.3640333674    1.4790223274
H        0.4773259072    1.9382342786    0.5360934082
H       -0.9526439164    2.7568791516   -1.0850440885
H       -1.3648310024    1.1317049056   -1.6924246989
H       -0.0382664430   -2.6715463484    0.7837053071
H        0.0406622659    2.2665266129   -3.1483767359
17   
torsion grid (105,)
C        1.1812050600    0.1513011490   -0.3690214340
C       -1.0196323658    0.4192688385    0.7293275322
C        1.0544640895   -1.1738149367   -0.1939401783
C       -1.0735774662   -0.9176029060    0.8611198681
C        0.0729967538    1.1302909946   -0.0493474978
C       -0.5242167327    1.8197887727   -1.3182265766
N       -0.1156497276   -1.7666343238    0.3017810519
O        0.3632163675    1.6480373196   -2.4299178751
H        2.0996220781    0.5336206765   -0.7994088327
H       -1.8089157148    1.0149759966    1.1806962461
H        1.8499117606   -1.8672236270   -0.4504156769
H       -1.8772103979   -1.4124758201    1.3989335981
H        0.4507078492    1.9374740714    0.5948041802
H       -0.6964033925    2.8875130631   -1.1174127101
H       -1.4933912633    1.3526247122   -1.5437355586
H       -0.0188922823   -2.6808446915    0.7218797759
H       -0.0533247480    2.0539414603   -3.2051430451
17   
torsion grid (120,)
C        1.1938812440    0.1906859987   -0.3204297990
C       -1.0451248584    0.3962939712    0.7073345187
C        1.0873501865   -1.1397475776   -0.1778478558
C       -1.0802078824   -0.9444229422    0.8056885900
C        0.0564160011    1.1440784296   -0.0181259207
C       -0.4918594130    1.8687398564   -1.2960640949
N       -0.0874743610   -1.7631950950    0.2642967172
O        0.2157753030    1.4239800721   -2.4589592855
H        2.1200607723    0.5973365994   -0.7114080934
H       -1.8610594136    0.9673768720    1.1427917184
H        1.9041416288   -1.8125922393   -0.4214513623
H       -1.8946459068   -1.4650985696    1.3012309640
H        0.4287191683    1.9392464471    0.6437096772
H       -0.3841486475    2.9577437992   -1.1820917698
H       -1.5626675955    1.6418152284   -1.3958033375
H        0.0081239723   -2.6871384114    0.6624351300
H       -0.2163703304    1.8151383107   -3.2333329291
17   
torsion grid (135,)
C        1.2102682631    0.2351475787   -0.2620053976
C       -1.0681690400    0.3811140010    0.6844220447
C        1.1193037613   -1.1001953868   -0.1634801545
C       -1.0869173227   -0.9624410946    0.7410641847
C        0.0412238766    1.1611902601    0.0110839350
C       -0.4515778035    1.8934624271   -1.2787582361
N       -0.0634179941   -1.7503360263    0.2118696875
O        0.0183388544    1.2095661395   -2.4446038561
H        2.1474776526    0.6668510509   -0.5982725269
H       -1.9053283456    0.9291644038    1.1088333524
H        1.9558477630   -1.7543464954   -0.3902396288
H       -1.9087719807   -1.5094384868    1.1941705559
H        0.4042656936    1.9565860699    0.6785188275
H       -0.0720757404    2.9270452684   -1.2806355958
H       -1.5499868193    1.9365344559   -1.2656205929
H        0.0265161140   -2.6874363955    0.5790615926
H       -0.4260870646    1.5977729796   -3.2134353243
17   
torsion grid (150,)
C        1.2296756616    0.2720905107   -0.2079355057
C       -1.0850508394    0.3724800981    0.6543391264
C        1.1499857824   -1.0663273689   -0.1467399380
C       -1.0901396437   -0.9720688930    0.6775974639
C        0.0352154364    1.1756822970    0.0301434097
C       -0.4092180459    1.9011383279   -1.2685334676
N       -0.0394228136   -1.7353101107    0.1659512051
O       -0.1990683306    1.0490567263   -2.3969943239
H        2.1767081530    0.7238889474   -0.4877585732
H       -1.9417845592    0.9025557036    1.0620828296
H        2.0023928136   -1.7069651935   -0.3520134570
H       -1.9189638287   -1.5393714272    1.0912557014
H        0.3679346160    1.9791898124    0.7053036535
H        0.1820910155    2.8234121001   -1.3867067941
H       -1.4673559536    2.1864316315   -1.1737949051
H        0.0436179618   -2.6836162625    0.5044588867
H       -0.6457075579    1.4479738505   -3.1586824443
17   
torsion grid (165,)
C        1.2464102200    0.2946121009   -0.1683247672
C       -1.0990454717    0.3615040456    0.6148514986
C        1.1787029508   -1.0457085424   -0.1245164319
C       -1.0883162904   -0.9825780813    0.6284175080
C        0.0343418241    1.1810568118    0.0365495905
C       -0.3720920993    1.9035541961   -1.2661982685
N       -0.0114338373   -1.7293029268    0.1458350358
O       -0.4234142375    0.9604425392   -2.3373772915
H        2.1973166129    0.7601988014   -0.4118042769
H       -1.9760618996    0.8792559556    0.9942449201
H        2.0437372404   -1.6754589590   -0.3100254831
H       -1.9230904630   -1.5635820141    1.0096747530
H        0.3168146375    1.9916891993    0.7276710728
H        0.3698144947    2.6884121179   -1.4867679847
H       -1.3480408568    2.3899070371   -1.1141296891
H        0.0709713579   -2.6802245145    0.4768982521
H       -0.8257043151    1.3964629826   -3.1030255705
17   
torsion grid (180,)
C        1.2604485995    0.3126976330   -0.1326876918
C       -1.1053939711    0.3515971473    0.5892390503
C        1.2029601171   -1.0292765526   -0.1051705339
C       -1.0824588819   -0.9916834394    0.5925072135
C        0.0340240849    1.1842301616    0.0398451445
C       -0.3539053705    1.8975690742   -1.2702614138
N        0.0127336209   -1.7241887945    0.1264204561
O       -0.6725046120    0.9217562666   -2.2619479518
H        2.2153285454    0.7897636532   -0.3361695285
H       -1.9960206500    0.8589902096    0.9499659712
H        2.0787740825   -1.6498937068   -0.2703618770
H       -1.9193196585   -1.5842166889    0.9503743562
H        0.2618345537    2.0025003636    0.7424338156
H        0.4898314317    2.5271491457   -1.5962295313
H       -1.2165466851    2.5552192622   -1.0757689678
H        0.0946264746   -2.6789337154    0.4462896268
H       -0.9135018137    1.3869607300   -3.0765052708
