52
-1 1 C26FH21NO3
C                     0.045022042535     0.703859327593     2.451627358900
C                    -0.093093156532    -0.483544407674     1.703650463752
C                    -1.337053018404    -1.107629921501     1.578807748809
C                    -2.429815817299    -0.524979157898     2.228769790109
C                    -2.311638861923     0.662934995248     3.009367380483
C                    -1.049318672842     1.279228268813     3.100054982084
C                    -3.637349866418     0.985967625096     3.492866257750
C                    -4.498532001795     0.008586746927     2.995521871524
N                    -3.761012066380    -0.900585453666     2.241126638906
C                    -4.284912930459    -2.073412399403     1.556611109077
C                    -3.857230749897    -3.379403551640     2.201683918082
C                    -3.143727913779    -4.340703094218     1.479410985718
C                    -2.749988985172    -5.547817299430     2.071873255735
C                    -3.085354285710    -5.761360428545     3.402294635918
C                    -3.796737312007    -4.827596675042     4.151420570586
C                    -4.185286234577    -3.632166094088     3.543754531296
F                    -2.703614677901    -6.934327283444     3.996221070485
C                    -6.000114411951    -0.243234346929     3.200806825134
O                    -6.783972845215     0.627996228666     2.741941617992
O                    -6.267572528337    -1.331463965124     3.779733943335
C                    -3.991043039728     2.116264863000     4.365163548766
C                    -3.112828536767     2.577427387167     5.364726403168
C                    -3.481759172063     3.648215557336     6.185972143010
C                    -4.723708234619     4.269734831573     6.047361660532
C                    -5.607262246762     3.802298038431     5.061421637319
C                    -5.236058832389     2.756526959026     4.215145566700
O                    -6.831958020833     4.426141564812     4.991603409047
C                    -7.762611572323     3.911934862100     4.025627045907
C                    -9.080858071877     4.606129990340     4.227869685648
C                   -10.342299022439     3.889167811669     3.795963570257
C                   -10.042397268230     4.081747553832     5.269340745124
H                     1.020819167398     1.180220170507     2.521519687857
H                     0.776430314549    -0.919669610632     1.216934268421
H                    -1.442396426276    -2.023534478613     1.005407145726
H                    -0.927989842748     2.206125863339     3.652779832489
H                    -3.951501690855    -2.048814639244     0.511972130229
H                    -5.372659690324    -1.998509566610     1.566732379954
H                    -2.884264744278    -4.151022576406     0.439381161542
H                    -2.191613818641    -6.301702638056     1.524592781561
H                    -4.043394345384    -5.043241801873     5.187210478780
H                    -4.768520056215    -2.884740008915     4.079608820634
H                    -2.166288709698     2.072439729356     5.528980606895
H                    -2.797953184205     3.991172307137     6.960394547550
H                    -5.028733704837     5.090406853358     6.691279423856
H                    -5.901437504495     2.380141608568     3.448498558711
H                    -7.377646983963     4.093489387583     3.013150193190
H                    -7.875031608824     2.827916023390     4.142147539027
H                    -9.058963126655     5.684779844697     4.086956350952
H                   -11.138767028953     4.479312576551     3.350588767706
H                   -10.234438699584     2.889780014380     3.383408507649
H                    -9.729209615253     3.212061207298     5.840022414532
H                   -10.637312142324     4.800345493346     5.826745511777
