52
-1 1 C26FH21NO3
C                    -1.126738976255     1.191668136278     1.246516449271
C                    -1.246221020218    -0.014354408099     0.526669857919
C                    -2.255079364460    -0.931080285284     0.836403867580
C                    -3.144464888297    -0.602599945388     1.863056853885
C                    -3.051947026770     0.615922722515     2.600841870040
C                    -2.014100222633     1.510281199774     2.277052754910
C                    -4.094132925281     0.579933115829     3.607451533935
C                    -4.769568340394    -0.627247564624     3.444708940785
N                    -4.209166234643    -1.319301684204     2.378890734186
C                    -4.595717407408    -2.655581024358     1.954191250388
C                    -3.709591525228    -3.740843799938     2.540482615615
C                    -2.997267627142    -4.611654166494     1.709476805385
C                    -2.179413495171    -5.617798149151     2.240094738053
C                    -2.089181954366    -5.724625433423     3.621435586780
C                    -2.779728463947    -4.874036161070     4.480300894368
C                    -3.594331182967    -3.879742863916     3.934603432653
F                    -1.292791165391    -6.701686423969     4.155355765163
C                    -5.946145316310    -1.272644161289     4.187874995951
O                    -7.008194844526    -1.363033322819     3.525292654980
O                    -5.672428197712    -1.696732932251     5.345504167993
C                    -4.393420706923     1.630444591146     4.589506290441
C                    -4.862502489758     1.316195667982     5.886267576105
C                    -5.124640369595     2.333929229523     6.796401429275
C                    -4.928805309152     3.686685740407     6.472628766265
C                    -4.470401687416     3.999333225162     5.188189604790
C                    -4.211035463180     2.984206745109     4.260732579992
O                    -4.246697461547     5.288037708416     4.734841773875
C                    -4.570541076637     6.360171047055     5.610486994475
C                    -4.298912715742     7.654249023252     4.890707513376
C                    -3.943796262114     8.884719999271     5.698266148165
C                    -2.892236163945     8.200026480687     4.847141052136
H                    -0.322538161371     1.882214148433     1.000771548069
H                    -0.539034056987    -0.242345080502    -0.267720794661
H                    -2.329708395672    -1.875843960797     0.304963948075
H                    -1.886110612529     2.433373729691     2.834467179048
H                    -4.561716242300    -2.695189573445     0.860352517805
H                    -5.637194372502    -2.793501512671     2.254168010176
H                    -3.074372366309    -4.506988978594     0.628901571497
H                    -1.619247868132    -6.297759955621     1.604794456268
H                    -2.680884706916    -4.994609177938     5.555263362545
H                    -4.146387730181    -3.210266910254     4.593660458548
H                    -5.019362405069     0.275354625726     6.151572115871
H                    -5.486039971791     2.078098956826     7.790456522600
H                    -5.137070726399     4.455119880380     7.209027782637
H                    -3.903169480823     3.275419520646     3.262045397455
H                    -5.627996944490     6.299759113039     5.906808452096
H                    -3.961960804339     6.304771516620     6.526058460991
H                    -4.907227319913     7.810711515894     4.003193324200
H                    -4.332299955908     9.843857794734     5.367559236946
H                    -3.870115209540     8.780282182943     6.777929900766
H                    -2.120777067116     7.626235561785     5.353018066334
H                    -2.562605117621     8.695156106824     3.938427293636
