52
-1 1 C26FH21NO3
C                    -1.713775184865     1.968094360287     0.858876727233
C                    -1.613534458207     0.763390488476     0.133763557901
C                    -2.326067921051    -0.370424084511     0.533871240075
C                    -3.145544378056    -0.264247444787     1.661642281227
C                    -3.283363301387     0.949509744204     2.398260228795
C                    -2.537088700532     2.068467857507     1.982289062703
C                    -4.175207477797     0.672906313179     3.506512198107
C                    -4.533523109294    -0.670362785874     3.410820749720
N                    -3.915147555156    -1.224287249264     2.294717902018
C                    -4.057823568557    -2.596174902758     1.830026787169
C                    -4.880037591567    -2.707954952340     0.558626885546
C                    -6.205779425925    -2.243822082405     0.546714773152
C                    -6.973166086068    -2.333231895670    -0.616126069442
C                    -6.402243064227    -2.893250353236    -1.756020407029
C                    -5.097718447252    -3.368349431301    -1.778209961079
C                    -4.340201280761    -3.266529052460    -0.603815364898
F                    -7.153488692297    -2.981625783808    -2.897304538600
C                    -5.471707519255    -1.549289984701     4.248581316541
O                    -6.493080608190    -1.956584570743     3.627860840596
O                    -5.094157391547    -1.793963365553     5.420603426075
C                    -4.631022073572     1.646507680708     4.509011181679
C                    -4.866797117372     1.275256804430     5.852882045180
C                    -5.282400097835     2.229696892707     6.774709164217
C                    -5.471282833376     3.574608012769     6.416306377234
C                    -5.244997434535     3.941908475333     5.085335462392
C                    -4.836017175656     2.988665269488     4.146353989842
O                    -5.403781596937     5.226931853740     4.595372394450
C                    -5.872230753709     6.222165165416     5.495789559180
C                    -5.996999569054     7.518743218178     4.740904980519
C                    -5.854395126870     8.824607002753     5.493678692453
C                    -4.773298664014     8.376781818670     4.529484651077
H                    -1.138254322159     2.834007943189     0.538002674728
H                    -0.975098838491     0.712920074423    -0.745469325434
H                    -2.250857620423    -1.298230948363    -0.025100848933
H                    -2.583558376120     3.000424767174     2.537723395679
H                    -4.536212123290    -3.163240259777     2.629281980634
H                    -3.058622745452    -3.017184513242     1.665559859494
H                    -6.617448354835    -1.840265016793     1.471211998684
H                    -8.000973848174    -1.982496537212    -0.645238436181
H                    -4.690461422209    -3.795360604576    -2.690073059538
H                    -3.312880811490    -3.626467204786    -0.602606194971
H                    -4.732843018632     0.237597371360     6.141638120809
H                    -5.462580736401     1.929925458969     7.805208702624
H                    -5.790286530197     4.294114835309     7.162482360623
H                    -4.718601187693     3.308609525883     3.116377977033
H                    -6.845361317564     5.925929778468     5.914227468963
H                    -5.169154936477     6.341897266778     6.334262245065
H                    -6.720642789930     7.498436804734     3.929660229575
H                    -6.493103002969     9.654626151491     5.204937693083
H                    -5.637183312698     8.776593807201     6.557894031865
H                    -3.836190891547     8.016891509255     4.944979906935
H                    -4.674326438631     8.904327586583     3.585311997715
