52
-1 1 C26FH21NO3
C                    -1.401539775695     1.340496956609     0.646922336274
C                    -1.639924271698     0.106807985179     0.006943286555
C                    -2.509439979749    -0.831591339522     0.569516474108
C                    -3.144452188044    -0.498228006332     1.769496243372
C                    -2.925939031859     0.746392935462     2.433376851837
C                    -2.031542125751     1.663762450889     1.850431786327
C                    -3.696561832899     0.713235538125     3.658620467199
C                    -4.346887874035    -0.518830632012     3.692102340126
N                    -4.029943279826    -1.229404064802     2.539650738457
C                    -4.441799426341    -2.596171801780     2.259435916390
C                    -3.404431194198    -3.622835228751     2.679512169401
C                    -2.843248922485    -4.498779206929     1.744402940506
C                    -1.887308860238    -5.451020299306     2.120923908500
C                    -1.504033389659    -5.499333892885     3.454520574201
C                    -2.036749240088    -4.642067848787     4.413248902922
C                    -2.992048976743    -3.702096984189     4.021144687386
F                    -0.569931306707    -6.422933819079     3.837994814324
C                    -5.303216183018    -1.164463606845     4.705242193678
O                    -6.467954321708    -1.363731550981     4.284703794333
O                    -4.783364948087    -1.479099617847     5.815379610809
C                    -3.791058870112     1.781395973019     4.664505285317
C                    -3.757815428561     3.142245534951     4.305406349838
C                    -3.862053522826     4.131884443365     5.288988502278
C                    -4.014754899026     3.798543907129     6.635561963754
C                    -4.060841878947     2.442004916920     6.995375537181
C                    -3.926366011478     1.447112257782     6.026167160726
O                    -4.244861512965     2.169164131658     8.331638880309
C                    -4.343438173091     0.783843028916     8.698112339436
C                    -4.701106435647     0.706849739761    10.156366460431
C                    -6.151633706807     0.801553642930    10.570308745221
C                    -5.425592604069    -0.526594460750    10.651873797386
H                    -0.705867586858     2.047578835829     0.199670642702
H                    -1.131948445430    -0.124614131555    -0.926610415346
H                    -2.670151162131    -1.794958589133     0.093324957317
H                    -1.812812149787     2.607394687315     2.341441603835
H                    -4.641889251478    -2.684139596563     1.186617176844
H                    -5.387163606861    -2.754513042856     2.783591007785
H                    -3.150184473720    -4.440481415246     0.701931148715
H                    -1.442697316438    -6.133948932516     1.402853997882
H                    -1.708568229281    -4.715560508982     5.446056580028
H                    -3.419612399355    -3.028390110558     4.762334519675
H                    -3.697196199956     3.424937980593     3.259260777012
H                    -3.843315664719     5.180933563919     4.999016541464
H                    -4.113861493086     4.558342536495     7.406273428436
H                    -3.949765137629     0.395606484944     6.283467821097
H                    -5.102119598238     0.279980042014     8.088225914904
H                    -3.384787035450     0.284240818161     8.504660719609
H                    -3.973251546269     1.150820942095    10.832274806510
H                    -6.388150413635     1.317190325342    11.497219775557
H                    -6.885728458058     0.929754738706     9.779839211104
H                    -5.677623617232    -1.288218375777     9.919033037371
H                    -5.165317777271    -0.912237766508    11.633950133739
