13   
torsion grid (-165,)
C       -1.2390995708    2.6300367261   -2.0790591921
C       -0.1065578167    0.3208753756    0.0413594854
C        0.3852945146   -1.2366884966    1.7606485017
C        0.0472066554    0.4815543841   -1.4966651427
N       -0.6446338356    1.6697797892   -1.8966280845
O       -0.8491575573    1.0089922741    0.6983118521
O        0.6427947173   -0.6995546724    0.4174006433
H       -1.7944780600    3.5368557554   -2.2731994833
H        1.0457954749   -2.0961893411    1.8442150979
H       -0.6624957255   -1.5301284786    1.8304873732
H        0.6231837273   -0.4787656572    2.5069464449
H       -0.4066075290   -0.3669761353   -2.0163611067
H        1.0938751616    0.5708224414   -1.7997517713
13   
torsion grid (-150,)
C       -1.2339572172    2.6196131945   -2.1091217759
C       -0.0389123371    0.4062418040    0.0828496828
C        0.3848997537   -1.2540001798    1.7308974022
C        0.0134779266    0.4637290973   -1.4686924279
N       -0.6613158191    1.6505121876   -1.9040600133
O       -0.7829322677    1.0990058628    0.7321458395
O        0.7552254009   -0.5740885073    0.4811573159
H       -1.7726367733    3.5312842020   -2.3263525771
H        1.1103740339   -2.0574074673    1.8321676326
H       -0.6286500856   -1.6441325119    1.6300642722
H        0.4491005807   -0.5549432991    2.5645239788
H       -0.5146338072   -0.3979412203   -1.8867289305
H        1.0359689505    0.4823266124   -1.8550400793
13   
torsion grid (-135,)
C       -1.2394117960    2.6313029043   -2.1176832547
C        0.0306436627    0.5175507748    0.1352247168
C        0.3584037450   -1.2682604737    1.6872800764
C       -0.0470425152    0.4629859844   -1.4158265027
N       -0.6983902073    1.6491886043   -1.8889648047
O       -0.6381171876    1.2811206547    0.7848346227
O        0.8214379321   -0.4656769246    0.5452390834
H       -1.7497057309    3.5535390989   -2.3576937853
H        1.1833591603   -1.9413499830    1.9078620140
H       -0.5278089491   -1.8248437247    1.3777835243
H        0.1415539355   -0.6198157102    2.5359321796
H       -0.6514452301   -0.3973760802   -1.7171831080
H        0.9376507669    0.3941894015   -1.8854610166
13   
torsion grid (-120,)
C       -1.2845693238    2.5877192077   -2.1119144558
C        0.1064733230    0.5943949630    0.1833641264
C        0.3161844842   -1.3065347871    1.6290605606
C       -0.0935426926    0.4389319961   -1.3512641418
N       -0.7534547157    1.6058750157   -1.8590755847
O       -0.4551787102    1.4495786952    0.8171219786
O        0.8771087770   -0.4000015929    0.6171051428
H       -1.7859448658    3.5089584854   -2.3736215325
H        1.1558432153   -1.9111700912    1.9637737192
H       -0.4417860605   -1.9306991804    1.1512392889
H       -0.1015330198   -0.7292914947    2.4545243935
H       -0.7331304531   -0.4259758912   -1.5495392649
H        0.8532944584    0.3151311623   -1.8835426910
13   
torsion grid (-105,)
C       -1.3198250252    2.5379755550   -2.1082972702
C        0.1811759786    0.6780351466    0.2322455854
C        0.2883514986   -1.3204795327    1.5630027979
C       -0.1045250618    0.4297756640   -1.2788651533
N       -0.7890164403    1.5645778303   -1.8233660556
O       -0.2692787348    1.6261432120    0.8168584801
O        0.9333112809   -0.3144517940    0.7125899581
H       -1.8238155810    3.4491733882   -2.3986059625
H        1.1016574269   -1.9389986423    1.9356214122
H       -0.3974722528   -1.9191688852    0.9579076758
H       -0.2311531466   -0.8285617898    2.3870030378
H       -0.7460172253   -0.4474973749   -1.4026184988
H        0.8195962155    0.2792149366   -1.8437042726
13   
torsion grid (-90,)
C       -1.3509400313    2.4921655041   -2.1278795152
C        0.2336842595    0.7807893381    0.2678504379
C        0.2624929949   -1.2896790960    1.5061463420
C       -0.1195422591    0.4311133076   -1.2124302565
N       -0.8191557336    1.5321440564   -1.8019622080
O       -0.0796632634    1.8294847623    0.7602488060
O        0.9564730605   -0.1980927422    0.8209544176
H       -1.8550788891    3.3901198944   -2.4566396895
H        1.0538996969   -1.9322136115    1.8852870919
H       -0.3639908614   -1.8446665655    0.8013565618
H       -0.3300538485   -0.8835631567    2.3279488931
H       -0.7602851235   -0.4528214850   -1.2742704716
H        0.7908350107    0.2528322881   -1.7918743229
13   
torsion grid (-75,)
C       -1.3320661218    2.4701685547   -2.1260537216
C        0.2678240108    0.8222159337    0.2978843562
C        0.2749052327   -1.3215876986    1.4340648122
C       -0.1690277633    0.4009271238   -1.1460344183
N       -0.8365723315    1.5030318007   -1.7661077267
O        0.0913004788    1.9411579923    0.6951131558
O        0.9579357804   -0.1409563833    0.9111643256
H       -1.8025879494    3.3742086840   -2.4863589643
H        1.0590929468   -1.9181559977    1.8947121614
H       -0.1973662189   -1.8930810467    0.6291220270
H       -0.4570957605   -1.0121868905    2.1822673012
H       -0.8508919991   -0.4532887696   -1.1504369928
H        0.7141846495    0.1568671492   -1.7436718830
13   
torsion grid (-60,)
C       -1.2827159864    2.4748076290   -2.1395884765
C        0.2437737903    0.8708165371    0.3506563948
C        0.3270951287   -1.3328442345    1.3684290206
C       -0.2780767663    0.3806281295   -1.0467664834
N       -0.8613850170    1.4951565643   -1.7241976695
O        0.1375713743    2.0235548317    0.6712244772
O        0.9360502969   -0.0571903349    1.0069148567
H       -1.6849036580    3.3903483190   -2.5499965192
H        1.0745770160   -1.8358213790    1.9779219863
H        0.1145642573   -1.9373390579    0.4813457560
H       -0.5761479538   -1.1532642173    1.9546019669
H       -1.0396006090   -0.4000084246   -0.9719866578
H        0.5567346698    0.0127638549   -1.6503898842
13   
torsion grid (-45,)
C       -1.2222508489    2.4630462422   -2.1436381745
C        0.2514619149    0.9096864395    0.3968959577
C        0.3758589357   -1.3389180406    1.3060148652
C       -0.3479718312    0.3660488052   -0.9503763781
N       -0.8602801638    1.4808317319   -1.6817311295
O        0.2145518574    2.0844194662    0.6476846057
O        0.9137372593   -0.0001437457    1.1029267114
H       -1.5685135488    3.3806245872   -2.5980967962
H        1.0653794821   -1.8136510023    2.0005828521
H        0.3584825606   -1.9060016756    0.3703557732
H       -0.6179614203   -1.2750782659    1.7540001256
H       -1.1694038365   -0.3403045931   -0.8035476571
H        0.4313294288   -0.1074460565   -1.5545662156
13   
torsion grid (-30,)
C       -1.2028465291    2.4429257234   -2.1591373040
C        0.2546491599    0.9391320503    0.4088111922
C        0.3936707813   -1.3369381558    1.2562073568
C       -0.4034991050    0.3577672030   -0.8947278063
N       -0.8794594457    1.4640212113   -1.6634305940
O        0.2887786240    2.1277062150    0.5897238311
O        0.8476844708    0.0426009351    1.1849300652
H       -1.5150741807    3.3570489117   -2.6441898299
H        1.0272070829   -1.8003659290    2.0093318130
H        0.5354640055   -1.8517244454    0.3014615730
H       -0.6490693726   -1.3725483636    1.5800310485
H       -1.2547738263   -0.2982344281   -0.6942354413
H        0.3308518900   -0.1808593455   -1.5006662834
13   
torsion grid (-15,)
C       -1.0655891792    2.4572652246   -2.2168779409
C       -1.0644886017    0.0457923870    0.0443732025
C        0.6538249559   -1.2534534392    1.1856470791
C        0.1147701125    0.8840696587   -0.5688366034
N       -0.4598274209    1.7947184969   -1.5081443829
O       -2.1981220114    0.2625156384   -0.2957393522
O       -0.7203988675   -0.8341024551    0.9728588053
H       -1.6201627845    3.0923218629   -2.8932970015
H        0.6024854370   -1.9726345535    2.0002198947
H        1.2815374929   -0.4113495706    1.4896970536
H        1.0449911256   -1.7438462045    0.2908340806
H        0.8453604357    0.2710601094   -1.1032969026
H        0.6311895065    1.4741773232    0.1935941220
13   
torsion grid (0,)
C       -1.0746312778    2.4760056016   -2.1874287846
C       -1.0714252524    0.0299122181    0.0334663257
C        0.6536825225   -1.2140716743    1.2301079451
C        0.1146081737    0.8104673688   -0.6396386462
N       -0.4642586026    1.7682053269   -1.5282410940
O       -2.2086837588    0.2994071694   -0.2533962905
O       -0.7271601806   -0.9078251963    0.9027473017
H       -1.6337092131    3.1522013758   -2.8187598460
H        0.5946182970   -2.0199324602    1.9584650505
H        1.1453004971   -0.3510153516    1.6864740760
H        1.1943554363   -1.5650751511    0.3473415282
H        0.7628920092    0.1579315892   -1.2308353415
H        0.7231983049    1.3560948577    0.0866144664
13   
torsion grid (15,)
C       -1.0672891715    2.5007360582   -2.1684995125
C       -1.0636773201    0.0226303904    0.0195037680
C        0.6510988359   -1.1758662544    1.2710502960
C        0.1194937917    0.7502043029   -0.7154113775
N       -0.4583693577    1.7526222064   -1.5538729193
O       -2.2012361187    0.3427364111   -0.2069879359
O       -0.7151932031   -0.9713060936    0.8227811796
H       -1.6247961755    3.2157369371   -2.7570173752
H        0.6066175808   -2.0577774945    1.9063793811
H        0.9905043464   -0.3197186789    1.8592754972
H        1.3185168356   -1.3745253114    0.4280218649
H        0.6808597729    0.0639756727   -1.3558923680
H        0.8109953236    1.2471826310   -0.0298440548
13   
torsion grid (30,)
C       -1.0940798050    2.5212142532   -2.1271363917
C       -1.0534748047    0.0227661403    0.0491207000
C        0.6467308750   -1.1611491906    1.3241225633
C        0.1062970858    0.7161626028   -0.7536794784
N       -0.4817455282    1.7446632700   -1.5521777583
O       -2.1896633042    0.3914732354   -0.0912551812
O       -0.6879905998   -1.0341870626    0.7612684512
H       -1.6552265057    3.2611782415   -2.6802655284
H        0.6213825775   -2.0863686905    1.8956596056
H        0.8538337746   -0.3217400988    1.9919043352
H        1.4029642579   -1.2451298203    0.5381792402
H        0.5977643137    0.0080541724   -1.4271788937
H        0.8581696622    1.1828326819   -0.1117306880
13   
torsion grid (45,)
C       -1.1113865193    2.5423907239   -2.1114622685
C       -1.0219878769    0.0171041822    0.0458388699
C        0.6355906522   -1.1570926980    1.3769723750
C        0.1032304139    0.6823127718   -0.8267262487
N       -0.4953923099    1.7372119627   -1.5810287962
O       -2.1507381715    0.4266851950   -0.0038907384
O       -0.6392263272   -1.0885865170    0.6749045078
H       -1.6765962267    3.3074526772   -2.6248798254
H        0.6261037060   -2.1225651896    1.8779818534
H        0.6952554621   -0.3553374805    2.1159446853
H        1.4765025702   -1.1215540032    0.6777211223
H        0.5231644507   -0.0424927448   -1.5301886937
H        0.9109170623    1.1169290949   -0.2317448673
13   
torsion grid (60,)
C       -1.1068630225    2.5994011545   -2.0898274351
C       -0.9689128526    0.0211657020    0.0168293117
C        0.6217089634   -1.1272807113    1.4486185084
C        0.1047455118    0.6496232306   -0.9411276199
N       -0.4928960434    1.7545747486   -1.6217469082
O       -2.0832837726    0.4674143509    0.0602579329
O       -0.5607710431   -1.1063293632    0.5941536159
H       -1.6704787212    3.4020229949   -2.5442945024
H        0.6509940536   -2.1340275437    1.8594706049
H        0.5048004246   -0.3973715134    2.2518987723
H        1.5327928964   -0.9437040568    0.8709282835
H        0.4149274806   -0.0853070336   -1.6896355395
H        0.9873789729    1.0206425655   -0.4136792680
13   
torsion grid (75,)
C       -1.0932194793    2.6385891082   -2.0591733370
C       -0.9136136012   -0.0053776999   -0.0275314657
C        0.6024996242   -1.0926802054    1.5236147622
C        0.0915243896    0.5840802673   -1.0741884729
N       -0.4916805075    1.7455375290   -1.6705348827
O       -2.0051853920    0.4724108951    0.1179867109
O       -0.4586066302   -1.1335058462    0.5205064412
H       -1.6451013189    3.4858089139   -2.4414610138
H        0.7572459741   -2.1303762315    1.8104600902
H        0.2652791658   -0.5071129872    2.3807933972
H        1.5271952652   -0.6852457788    1.1034811568
H        0.2756071333   -0.1494901173   -1.8646234733
H        1.0456699171    0.8759485295   -0.6280257517
13   
torsion grid (90,)
C       -1.1071839473    2.6640862157   -2.0593969884
C       -0.8565160840    0.0167941849   -0.0325142036
C        0.5523295341   -1.0872288493    1.5853143114
C        0.0741294245    0.5673861286   -1.1590276927
N       -0.5101490409    1.7495274140   -1.7161925147
O       -1.8810518009    0.5669340737    0.2642679664
O       -0.3750401557   -1.1314107913    0.4536444984
H       -1.6554281540    3.5313525929   -2.3997477523
H        0.7751043132   -2.1283644003    1.8074202899
H        0.0639845417   -0.6084608055    2.4360214372
H        1.4695958921   -0.5602133432    1.3058522173
H        0.1855646781   -0.1703609088   -1.9588013373
H        1.0636448445    0.8256834626   -0.7719128878
13   
torsion grid (105,)
C       -1.1636477854    2.6482661454   -2.0645563921
C       -0.7375765207    0.0344382602   -0.0208140214
C        0.5524688506   -1.1359837926    1.6352004027
C        0.0946814026    0.5700028729   -1.2238187004
N       -0.5397255913    1.7400683767   -1.7541605563
O       -1.6665134693    0.6470990659    0.4323012469
O       -0.2267161016   -1.1272799705    0.3925906724
H       -1.7373807385    3.5106597266   -2.3738702247
H        0.7497513643   -2.1861845884    1.8377702169
H       -0.0335055801   -0.6909418106    2.4410632524
H        1.4903151432   -0.5970213807    1.4774472309
H        0.1725582325   -0.1733294236   -2.0220053796
H        1.1001332695    0.8467625595   -0.8938073766
13   
torsion grid (120,)
C       -1.2161024288    2.6362241941   -2.0926420281
C       -0.6250356782    0.0820464923   -0.0181088675
C        0.5088405550   -1.1717353066    1.6818224179
C        0.1088976584    0.5811763809   -1.2953986920
N       -0.5738083873    1.7322266054   -1.8093177395
O       -1.4574805651    0.7473381257    0.5412308570
O       -0.1012554399   -1.0854086861    0.3473693841
H       -1.8093416741    3.4931559574   -2.3794951879
H        0.7004765626   -2.2308596548    1.8373121188
H       -0.1824257365   -0.7868234929    2.4322109591
H        1.4442904580   -0.6085016157    1.6708732069
H        0.1450148550   -0.1806341594   -2.0786576736
H        1.1290026752    0.8791361237   -1.0364569524
13   
torsion grid (135,)
C       -1.2653267364    2.6134265890   -2.1244657825
C       -0.5181498352    0.1329859797   -0.0159370025
C        0.4425911137   -1.2095393614    1.7103317025
C        0.0976279195    0.5645545596   -1.3758382054
N       -0.6168827931    1.7065712422   -1.8662077822
O       -1.2447045788    0.8559611517    0.6178577704
O       -0.0015364184   -1.0424193085    0.3183504806
H       -1.8646780843    3.4732891367   -2.3889250729
H        0.7389256527   -2.2530169290    1.7851545925
H       -0.3758786582   -0.9826918863    2.3932388038
H        1.2942305491   -0.5485126794    1.8797450666
H        0.0521976802   -0.2259665855   -2.1294450754
H        1.1401471578    0.8582192831   -1.2233386362
13   
torsion grid (150,)
C       -1.2592498082    2.6020105061   -2.1158987051
C       -0.3809717983    0.1665454459   -0.0113534494
C        0.4070773854   -1.2385882798    1.7369782040
C        0.0988918117    0.5236668939   -1.4450638134
N       -0.6229052161    1.6775392099   -1.8933160490
O       -1.0233368713    0.9304982437    0.6660065835
O        0.1362384616   -1.0078549612    0.3105566793
H       -1.8493205891    3.4776802598   -2.3472594003
H        0.8894085911   -2.2123521793    1.7712132284
H       -0.5290979507   -1.2404517297    2.2949274784
H        1.0716603817   -0.4529674268    2.0986181216
H       -0.0644092117   -0.2886036621   -2.1582591132
H        1.1625355396    0.7773746793   -1.4244077938
13   
torsion grid (165,)
C       -1.2776190150    2.6030757663   -2.0895418381
C       -0.2713221950    0.2054191954   -0.0039966215
C        0.3809170020   -1.2397793254    1.7594820840
C        0.0835250293    0.5070120413   -1.4866005573
N       -0.6472579566    1.6679583401   -1.8972778612
O       -0.9125924426    0.9645306885    0.6808899836
O        0.3018937467   -0.9384282447    0.3234880081
H       -1.8668849385    3.4861594514   -2.2929757299
H        0.9376376221   -2.1719960880    1.8144414290
H       -0.6252154450   -1.3535057206    2.1629210745
H        0.9084013803   -0.4294732128    2.2634790271
H       -0.1789709978   -0.3210335149   -2.1505144883
H        1.1506537279    0.7241974708   -1.5871084920
13   
torsion grid (180,)
C       -1.2503670448    2.6019924506   -2.0817756175
C       -0.1719792862    0.2442972630    0.0080723708
C        0.3786988128   -1.2377229057    1.7728542757
C        0.0809897995    0.4797521599   -1.5075706172
N       -0.6345560790    1.6545335429   -1.9034516130
O       -0.8651413920    0.9713324413    0.6775600619
O        0.4898316840   -0.8410542614    0.3625141554
H       -1.8258582739    3.4969051461   -2.2725188026
H        0.9830318880   -2.1378036041    1.8537288099
H       -0.6669398140   -1.4367536780    2.0080902415
H        0.7687009673   -0.4375336506    2.4020834770
H       -0.2795273575   -0.3606432864   -2.1071266667
H        1.1429959304    0.6383888249   -1.7142446928
