21   
torsion grid (-165,)
C        1.8578028865   -0.7943702004    1.2224557325
C        0.5392822554   -0.0528805515    1.4625912933
C        0.0951656699    0.8339980229    0.2795482068
H        0.8961632487    1.5583094060    0.0861694893
C       -1.1809924590    1.6199057305    0.6474192168
C       -0.0964484323    0.0330449987   -0.9987872168
C       -1.1450519642   -1.0543972243   -0.9899425806
C        0.6348482417    0.2869100761   -2.0930890912
H        2.1457961330   -1.3811715147    2.1014126805
H        2.6703668650   -0.0905661082    1.0078653536
H        1.7842836334   -1.4755606599    0.3687752513
H       -0.2554899018   -0.7719920646    1.6963660217
H        0.6350733414    0.5863923033    2.3498392996
H       -1.6596725900    2.0429671531   -0.2416380812
H       -1.9177790967    0.9701809023    1.1336908565
H       -0.9506920449    2.4329463356    1.3436361916
H       -2.1291918989   -0.6584587065   -0.7136785844
H       -0.9025015742   -1.8353120245   -0.2593639388
H       -1.2332938987   -1.5281399448   -1.9712579917
H        0.4978715224   -0.2729800081   -3.0160367941
H        1.3953014967    1.0651134387   -2.1006816945
21   
torsion grid (-150,)
C        1.8957398465   -0.6434579601    1.2017089814
C        0.5477307094    0.0333861518    1.4668765487
C        0.0569695646    0.9268897207    0.3075405231
H        0.8294520772    1.6809411714    0.1152689413
C       -1.2505019484    1.6569410661    0.7034030632
C       -0.1216604875    0.1380421769   -0.9802002068
C       -1.1118143456   -1.0028237940   -0.9618926934
C        0.5666290416    0.4478030504   -2.0878129409
H        2.2132553754   -1.2410743330    2.0630276190
H        2.6760913150    0.1004689117    1.0035277753
H        1.8475788191   -1.3035941568    0.3297948176
H       -0.2140704694   -0.7243535037    1.6871779509
H        0.6210904407    0.6551210690    2.3687601513
H       -1.8861922897    1.8489261617   -0.1664839532
H       -1.8437965295    1.0495337901    1.3969331478
H       -1.0379469957    2.6079777394    1.2009461399
H       -2.0942125639   -0.6740181498   -0.6031516272
H       -0.7821895478   -1.8031665966   -0.2886131063
H       -1.2398938235   -1.4343279253   -1.9582041754
H        0.4330673447   -0.1016805078   -3.0174998744
H        1.2869340150    1.2632385663   -2.0999005557
21   
torsion grid (-135,)
C        1.8408588448   -0.7258347455    1.2232610828
C        0.5101288091   -0.0083637541    1.4678536153
C        0.0664482182    0.9003321132    0.3014476474
H        0.8662888783    1.6302362207    0.1314133423
C       -1.2322603135    1.6716392349    0.6685951222
C       -0.1016388188    0.1223523936   -0.9941178047
C       -1.0817473760   -1.0274284962   -0.9872368439
C        0.5866158343    0.4479167193   -2.0971984743
H        2.1254928104   -1.3348586392    2.0880612578
H        2.6465416010   -0.0053763245    1.0402962754
H        1.7883338599   -1.3822914388    0.3487718729
H       -0.2784248748   -0.7418151655    1.6768691812
H        0.5895233794    0.6118523931    2.3700220685
H       -1.9617649059    1.6550660259   -0.1463791582
H       -1.7245745761    1.2278908402    1.5413770927
H       -1.0182666682    2.7168555047    0.9096982274
H       -2.0586818969   -0.7196751554   -0.5961919196
H       -0.7288876254   -1.8430895424   -0.3447782761
H       -1.2284981300   -1.4319678487   -1.9922557554
H        0.4575852447   -0.0920410859   -3.0330787728
H        1.3022648447    1.2675117919   -2.0990812650
21   
torsion grid (-120,)
C        1.8015199930   -0.7587764945    1.2343301469
C        0.4823581019   -0.0199651281    1.4785896065
C        0.0568289595    0.8969554963    0.3119536622
H        0.8698887473    1.6168640389    0.1627317564
C       -1.2337839998    1.6903840099    0.6668526533
C       -0.1011395046    0.1380567049   -0.9958018731
C       -1.0491477677   -1.0384931602   -1.0042713596
C        0.5703820506    0.5021615279   -2.0972748322
H        2.0772917408   -1.3706137254    2.0999918201
H        2.6177140282   -0.0506347934    1.0498324112
H        1.7399322554   -1.4161000936    0.3610755321
H       -0.3181103647   -0.7403986526    1.6897342299
H        0.5736535613    0.6005073477    2.3789584031
H       -2.0524398305    1.4744532931   -0.0255697338
H       -1.5876047762    1.4571920421    1.6768312272
H       -1.0551554758    2.7686810392    0.6204717409
H       -2.0310645436   -0.7684127337   -0.5984292147
H       -0.6671974115   -1.8565949298   -0.3819312379
H       -1.1935094443   -1.4261875869   -2.0162368856
H        0.4478764104   -0.0223416417   -3.0427477480
H        1.2651599646    1.3394701757   -2.0879684930
21   
torsion grid (-105,)
C        1.8827871467   -1.0998133362    1.3842546595
C        0.6442553105   -0.2300934221    1.6207702627
C        0.3213031806    0.7214284211    0.4491605516
H        1.2047500211    1.3578332967    0.3170932979
C       -0.8793703992    1.6453422974    0.7871517728
C        0.1061692696   -0.0081797711   -0.8668569827
C       -0.9254802439   -1.1121340471   -0.8913991817
C        0.8040653213    0.3185327660   -1.9637714083
H        2.0918520832   -1.7334874808    2.2528677013
H        2.7669681165   -0.4781792757    1.2013024436
H        1.7593313725   -1.7508359013    0.5128477902
H       -0.2254560792   -0.8654161182    1.8330730740
H        0.7962908891    0.3820485440    2.5182011227
H       -1.7935464205    1.3383056170    0.2706111390
H       -1.0853256188    1.6697815805    1.8622534495
H       -0.6769010866    2.6705518315    0.4617480660
H       -1.8898358121   -0.7754039934   -0.4940003086
H       -0.6102005202   -1.9595681359   -0.2710440907
H       -1.0871080345   -1.4818876681   -1.9074371484
H        0.6435286675   -0.1831575852   -2.9158826971
H        1.5595180258    1.1013691842   -1.9438371097
21   
torsion grid (-90,)
C        1.8887509519   -1.1362271540    1.3671424811
C        0.6519633880   -0.2637825059    1.6040172709
C        0.3370271004    0.6951398925    0.4365214258
H        1.2194294521    1.3368874166    0.3182542264
C       -0.8595077848    1.6151367289    0.7724650756
C        0.1318632029   -0.0204477741   -0.8889470915
C       -0.8950823245   -1.1281757920   -0.9365148537
C        0.8369070849    0.3216342929   -1.9766209469
H        2.0938946841   -1.7738264584    2.2338188143
H        2.7750827158   -0.5163605520    1.1887722065
H        1.7657277992   -1.7836835522    0.4930380644
H       -0.2200549183   -0.8981139523    1.8102007909
H        0.8029780087    0.3427300253    2.5053156960
H       -1.8144325097    1.1738850233    0.4704013928
H       -0.9049283082    1.8425228406    1.8426251811
H       -0.7746652477    2.5611648441    0.2277581396
H       -1.8715922444   -0.7940282218   -0.5681747558
H       -0.5942838429   -1.9726634878   -0.3051436856
H       -1.0274702810   -1.5013432003   -1.9555118544
H        0.6861059165   -0.1698585614   -2.9356036755
H        1.5888057253    1.1074259870   -1.9420008965
21   
torsion grid (-75,)
C        1.8728267212   -1.0237839647    1.3308738245
C        0.6042305950   -0.1989053036    1.5698155506
C        0.2558093276    0.7564514694    0.4090038364
H        1.1066278023    1.4410664089    0.2967358816
C       -0.9787067857    1.6136857468    0.7520143350
C        0.0873094880    0.0404330214   -0.9219599873
C       -0.9261456685   -1.0779777541   -0.9968661246
C        0.8157075992    0.3903198000   -1.9915913495
H        2.1003320621   -1.6567631018    2.1953674270
H        2.7360620450   -0.3712642581    1.1557856550
H        1.7737113379   -1.6716099265    0.4540436765
H       -0.2441952220   -0.8671760871    1.7665853167
H        0.7280995666    0.4044219453    2.4775833105
H       -1.9065145525    1.0357314303    0.6879343717
H       -0.9023036865    2.0253156711    1.7641675935
H       -1.0731709340    2.4483293646    0.0495583393
H       -1.9237081762   -0.7429723983   -0.6912134983
H       -0.6537260918   -1.9047946929   -0.3301992634
H       -1.0005135716   -1.4759687717   -2.0123593727
H        0.6957548979   -0.1042968645   -2.9533423832
H        1.5563822926    1.1857372741   -1.9392742571
21   
torsion grid (-60,)
C        1.9867395817   -0.9055081488    1.3314290540
C        0.6835330652   -0.1482306735    1.6045991321
C        0.2715415138    0.8151990385    0.4709617904
H        1.0829585897    1.5448081212    0.3523758000
C       -0.9993925418    1.5941665651    0.8590391803
C        0.1106232464    0.1111006425   -0.8671186143
C       -0.9141801060   -0.9951798814   -0.9599878573
C        0.8526698810    0.4617942401   -1.9270170940
H        2.2571319295   -1.5432902101    2.1799258666
H        2.8152557061   -0.2092664317    1.1570372262
H        1.9041248469   -1.5399937280    0.4432803387
H       -0.1289869403   -0.8611911820    1.7938829471
H        0.7883864788    0.4384851295    2.5259859166
H       -1.8424293306    0.9213915211    1.0502120554
H       -0.8285757321    2.1744808078    1.7725853073
H       -1.2941098183    2.2875027254    0.0646236184
H       -1.9163521941   -0.6377482625   -0.6970920823
H       -0.6796549434   -1.8139905815   -0.2694364975
H       -0.9579309941   -1.4097067031   -1.9706358302
H        0.7405207636   -0.0279011696   -2.8922386086
H        1.5973869407    1.2525341806   -1.8628926242
21   
torsion grid (-45,)
C        1.9598020676   -0.9442676263    1.3186241009
C        0.6466948812   -0.1969183551    1.5699820154
C        0.2607309209    0.7863870574    0.4442262515
H        1.0798351743    1.5080509353    0.3356008541
C       -1.0138183547    1.5668820864    0.8279825158
C        0.1020640089    0.0898895190   -0.8981960649
C       -0.9659865589   -0.9725374798   -1.0100782337
C        0.8772722781    0.4117870097   -1.9432807132
H        2.2061171165   -1.6019307878    2.1592442023
H        2.7915766100   -0.2425931119    1.1865469263
H        1.9047932438   -1.5568532235    0.4131519376
H       -0.1682146150   -0.9157936014    1.7203525909
H        0.7220420074    0.3707505273    2.5065217828
H       -1.7790683611    0.9045128211    1.2475531112
H       -0.7824864547    2.3083638015    1.6010874064
H       -1.4383772300    2.0963452817   -0.0305096713
H       -1.9517672178   -0.5778111997   -0.7379807576
H       -0.7645161193   -1.8122464491   -0.3342521382
H       -1.0275494668   -1.3675651866   -2.0276102831
H        0.7640585442   -0.0725522365   -2.9110984697
H        1.6514122407    1.1722995821   -1.8638784595
21   
torsion grid (-30,)
C        1.9988026838   -0.7990793904    1.3175218567
C        0.6541823831   -0.1161823856    1.5843235219
C        0.2240364181    0.8722004531    0.4792994574
H        1.0159028753    1.6230007679    0.3730007493
C       -1.0837656009    1.5967687018    0.8829403073
C        0.0794546277    0.1865173492   -0.8702821479
C       -0.9355793617   -0.9273548018   -0.9751979478
C        0.8166688131    0.5619543474   -1.9248591443
H        2.2727624138   -1.4662373162    2.1419407808
H        2.7993524196   -0.0587696169    1.2047975037
H        1.9715396284   -1.3906065463    0.3968427152
H       -0.1289039044   -0.8723615002    1.7183818020
H        0.7048233878    0.4341424065    2.5329986322
H       -1.7111954009    0.9679822015    1.5241738039
H       -0.8511023700    2.4931095479    1.4686340428
H       -1.6660823795    1.9133089302    0.0128804463
H       -1.9232703207   -0.6010455946   -0.6289526458
H       -0.6503385746   -1.7838400490   -0.3526078889
H       -1.0345665925   -1.2798756397   -2.0053374209
H        0.7077795828    0.0872880717   -2.8979600460
H        1.5541145170    1.3583503427   -1.8481097120
21   
torsion grid (-15,)
C        1.9401604154   -0.8818704396    1.3294705331
C        0.6141777124   -0.1573115545    1.5788401062
C        0.2319873163    0.8459427946    0.4695434116
H        1.0501205964    1.5702201534    0.3844213466
C       -1.0661876587    1.6129464137    0.8469050571
C        0.0984238934    0.1709345161   -0.8863276446
C       -0.9059867404   -0.9516076201   -1.0026758910
C        0.8357400906    0.5614871842   -1.9353069561
H        2.1805206548   -1.5601062123    2.1553187204
H        2.7651112093   -0.1666611451    1.2315374677
H        1.9091520454   -1.4693273142    0.4062462663
H       -0.1949410522   -0.8877174723    1.7019922458
H        0.6702571866    0.3911362744    2.5280853637
H       -1.5982850222    1.1270215878    1.6718839974
H       -0.8264481155    2.6260458737    1.1860334509
H       -1.7515598574    1.7103474386    0.0004997419
H       -1.8901167415   -0.6493393334   -0.6256803944
H       -0.5962758946   -1.8214650871   -0.4110637576
H       -1.0225561066   -1.2762530318   -2.0401165626
H        0.7319186256    0.0961748093   -2.9134574013
H        1.5680779218    1.3615357530   -1.8485784892
21   
torsion grid (0,)
C        1.8501655481   -0.9273863596    1.3541314219
C        0.5419432520   -0.1676921034    1.5930175585
C        0.1979586079    0.8456609587    0.4804636086
H        1.0368335891    1.5488650375    0.4222716578
C       -1.0855987120    1.6504772955    0.8353576336
C        0.0811533857    0.1899192805   -0.8860736430
C       -0.9001741810   -0.9505054739   -1.0257869457
C        0.8164204062    0.6102387517   -1.9250443788
H        2.0674647622   -1.6093717727    2.1832569115
H        2.6935684997   -0.2334759868    1.2601406476
H        1.8117302193   -1.5166483976    0.4323246433
H       -0.2874075370   -0.8763410061    1.7127268210
H        0.6073392465    0.3814808232    2.5407244524
H       -1.4992774842    1.3463558487    1.8028781605
H       -0.8734030781    2.7222720976    0.8892682086
H       -1.8728203905    1.5191796180    0.0874786482
H       -1.8920058563   -0.6780863639   -0.6464912650
H       -0.5733696443   -1.8241929240   -0.4492704493
H       -1.0070520774   -1.2582215733   -2.0693920343
H        0.7246221007    0.1601099748   -2.9114439076
H        1.5347747837    1.4208609004   -1.8213673486
21   
torsion grid (15,)
C        2.0381347354   -1.0311195391    1.3949430316
C        0.8097108530   -0.1330643233    1.5704115398
C        0.4060934248    0.6241282799    0.2875222807
H        1.2738883476    1.2317834342    0.0031766996
C       -0.7797829614    1.5898926464    0.5525632801
C        0.1180187422   -0.3015526602   -0.8834395716
C       -0.9020335629   -1.3963375261   -0.6723810784
C        0.7443235096   -0.1494901330   -2.0588582319
H        2.3059784491   -1.5217823877    2.3368822587
H        2.9040810156   -0.4470771582    1.0622564662
H        1.8660930438   -1.8099747016    0.6451634601
H       -0.0397240855   -0.7261075853    1.9337007697
H        1.0125429828    0.6116107342    2.3497997488
H       -0.9330987393    1.7524109047    1.6249632605
H       -0.6196201795    2.5579893095    0.0701700044
H       -1.7214350548    1.1900972564    0.1633578313
H       -1.8440139265   -1.0023798259   -0.2738889672
H       -0.5412401762   -2.1365364702    0.0517208080
H       -1.1212934885   -1.9200353720   -1.6066355209
H        0.5307508408   -0.7932840018   -2.9096800719
H        1.4918548105    0.6270404020   -2.2076497625
21   
torsion grid (30,)
C        2.0033233528   -0.9789741521    1.3550784469
C        0.7631765766   -0.0982182513    1.5371748875
C        0.3480785550    0.6598047269    0.2587562421
H        1.2034252187    1.2898851773   -0.0171340722
C       -0.8492315497    1.5998459613    0.5290708560
C        0.0797468153   -0.2581868902   -0.9232032256
C       -0.9196445276   -1.3754727552   -0.7315644613
C        0.7080675743   -0.0805805366   -2.0940352568
H        2.2806165381   -1.4689264502    2.2946495741
H        2.8601712401   -0.3820817332    1.0217261199
H        1.8397165731   -1.7577976819    0.6034097694
H       -0.0770560462   -0.7050555552    1.8994207344
H        0.9576915732    0.6449116791    2.3200101294
H       -0.8423169897    1.9598648192    1.5638437379
H       -0.8441784970    2.4565014176   -0.1506036160
H       -1.8042406455    1.0809742476    0.3939638250
H       -1.8820812618   -1.0020257715   -0.3639409285
H       -0.5624113856   -2.1024775416    0.0074401844
H       -1.0998796530   -1.9097616509   -1.6681402509
H        0.5113878293   -0.7190830614   -2.9528630177
H        1.4403931274    0.7124944085   -2.2309928614
21   
torsion grid (45,)
C        1.9549233088   -0.8579502588    1.2957557504
C        0.6845688061   -0.0250948920    1.4942179749
C        0.2341608942    0.7330768510    0.2277395627
H        1.0566358699    1.4065112438   -0.0467615728
C       -0.9983303625    1.6108293459    0.5220034474
C       -0.0017842067   -0.1826475836   -0.9631199578
C       -0.9911250843   -1.3128751737   -0.7976611539
C        0.6477970264    0.0074984317   -2.1203024045
H        2.2562850146   -1.3458658857    2.2289726156
H        2.7873058023   -0.2276042030    0.9620537602
H        1.8135199003   -1.6352279066    0.5380271339
H       -0.1310419360   -0.6673625852    1.8510811930
H        0.8542332157    0.7138456424    2.2870307498
H       -0.8667253037    2.1596530476    1.4612642425
H       -1.1775924706    2.3262873112   -0.2861007171
H       -1.9032403580    1.0044750202    0.6386825429
H       -1.9774793042   -0.9466395406   -0.4913465209
H       -0.6626600515   -2.0174588187   -0.0244136134
H       -1.1131031906   -1.8703047482   -1.7301360213
H        0.4786932959   -0.6318947613   -2.9843329773
H        1.3705313117    0.8119945759   -2.2406382703
21   
torsion grid (60,)
C        1.9272084002   -0.7963238201    1.2663010694
C        0.6487673077    0.0142700651    1.5007110679
C        0.1677615480    0.7952469125    0.2590029861
H        0.9735168208    1.4841557568   -0.0254472952
C       -1.0702466893    1.6452766725    0.6018453015
C       -0.0862119219   -0.1070460631   -0.9382785066
C       -1.1231386392   -1.1957969073   -0.7897003270
C        0.5867465045    0.0599400320   -2.0855531542
H        2.2492652523   -1.2986230789    2.1848886509
H        2.7462197547   -0.1485719162    0.9327715071
H        1.7830719416   -1.5597393969    0.4951836978
H       -0.1531614181   -0.6478585855    1.8511155772
H        0.8171012433    0.7358215512    2.3101809771
H       -0.8327571792    2.3646387455    1.3934637321
H       -1.4197148192    2.2034947786   -0.2727384287
H       -1.8986159970    1.0249003550    0.9608116205
H       -2.1028625655   -0.7836966546   -0.5222132283
H       -0.8493846957   -1.9005224182    0.0044923388
H       -1.2371088501   -1.7625231984   -1.7175957310
H        0.4074964898   -0.5730562169   -2.9522814022
H        1.3398600523    0.8376800436   -2.1947567762
21   
torsion grid (75,)
C        1.9005954630   -0.8380268683    1.2613170073
C        0.6113716436   -0.0401849037    1.4788396055
C        0.1546636498    0.7621502335    0.2413065107
H        0.9675943054    1.4460830006   -0.0321733368
C       -1.0877896349    1.6122199413    0.5808020014
C       -0.0967969511   -0.1325353875   -0.9621936761
C       -1.1760681939   -1.1820598135   -0.8369892193
C        0.6098258540    0.0092891764   -2.0923731412
H        2.2006437693   -1.3594865380    2.1766863877
H        2.7247861724   -0.1787335272    0.9651492706
H        1.7809489607   -1.5840895638    0.4693280241
H       -0.1952511515   -0.7139827035    1.7932276970
H        0.7526386439    0.6650874737    2.3080814204
H       -0.8042341218    2.4814870486    1.1839280829
H       -1.5635093056    1.9929080850   -0.3293773141
H       -1.8349441051    1.0374667196    1.1381843863
H       -2.1396111994   -0.7339222837   -0.5679171917
H       -0.9354751883   -1.9087354985   -0.0518244972
H       -1.3067337763   -1.7304268805   -1.7736984638
H        0.4302420792   -0.6186014914   -2.9627594013
H        1.3920528705    0.7601739826   -2.1832682021
21   
torsion grid (90,)
C        1.8249053703   -0.9027409407    1.2886747185
C        0.5463089492   -0.0791050231    1.4685716763
C        0.1440081933    0.7345704917    0.2196227217
H        0.9828202987    1.3923320569   -0.0368018136
C       -1.0910750811    1.6180171236    0.5247376130
C       -0.1023989639   -0.1602285075   -0.9848152051
C       -1.1976459237   -1.1938986484   -0.8666852550
C        0.6183883297   -0.0308739738   -2.1074324586
H        2.0832341687   -1.4363991676    2.2097166109
H        2.6722402320   -0.2592370660    1.0248520613
H        1.7162224586   -1.6409758903    0.4877325992
H       -0.2840041782   -0.7359796012    1.7553142764
H        0.6761144317    0.6213176715    2.3039434040
H       -0.7817056147    2.5997517286    0.8977964899
H       -1.6762778559    1.8039853110   -0.3820994418
H       -1.7543994540    1.1565399415    1.2634399627
H       -2.1458933131   -0.7374907121   -0.5593850815
H       -0.9509777787   -1.9483800975   -0.1100941675
H       -1.3603637100   -1.7114898827   -1.8158264218
H        0.4380937085   -0.6567570349   -2.9791244841
H        1.4134532156    0.7073229098   -2.1904502850
21   
torsion grid (105,)
C        1.7796643624   -0.8657069432    1.2945670616
C        0.4992146868   -0.0423597713    1.4618044334
C        0.1117409316    0.7726207706    0.2091537505
H        0.9560181137    1.4295362987   -0.0294033780
C       -1.1336841965    1.6580160999    0.4939037791
C       -0.1099672683   -0.1180213035   -1.0029437189
C       -1.1643703387   -1.1936705343   -0.8859580148
C        0.5962208355    0.0497900253   -2.1297308581
H        2.0268192737   -1.4026004443    2.2167789907
H        2.6299342271   -0.2210519800    1.0433110052
H        1.6817522804   -1.6013384713    0.4897794401
H       -0.3346856452   -0.6985689922    1.7401450076
H        0.6214758953    0.6581845366    2.2979796454
H       -0.8472971101    2.7074296133    0.6131565689
H       -1.8457315367    1.6277204310   -0.3367411273
H       -1.6649756708    1.3416829846    1.3974500852
H       -2.1177923774   -0.7835862590   -0.5326726986
H       -0.8656002447   -1.9624275706   -0.1632429215
H       -1.3394228829   -1.6863107528   -1.8461253569
H        0.4301047702   -0.5711985143   -3.0077102790
H        1.3645489931    0.8160564524   -2.2098532184
21   
torsion grid (120,)
C        1.7184451800   -0.9965454694    1.3303343791
C        0.4746165375   -0.1150290743    1.4769123488
C        0.1447560320    0.7113914210    0.2155305638
H        1.0236555075    1.3315132769    0.0044282681
C       -1.0659280596    1.6559193304    0.4672890530
C       -0.0788527028   -0.1618436622   -1.0086513718
C       -1.1364981756   -1.2363757624   -0.9095585919
C        0.6308862786    0.0185001722   -2.1313651066
H        1.9298375076   -1.5382134634    2.2585995471
H        2.5995616412   -0.3917849353    1.0862552308
H        1.5989694752   -1.7324438743    0.5286978042
H       -0.3921368072   -0.7306955886    1.7489609806
H        0.6198724884    0.5844369624    2.3097771117
H       -0.7823821769    2.7026725742    0.3237269192
H       -1.8945160787    1.4534757206   -0.2173012269
H       -1.4518735518    1.5556048143    1.4874678701
H       -2.0896624903   -0.8322446184   -0.5490207498
H       -0.8390003035   -2.0176468593   -0.1999101817
H       -1.3125373766   -1.7122997637   -1.8779226057
H        0.4632974654   -0.5881951822   -3.0189829704
H        1.4035401830    0.7816600018   -2.1983083167
21   
torsion grid (135,)
C        1.7369411121   -1.1660812617    1.3835006524
C        0.5355804873   -0.2287318079    1.5396667391
C        0.2421797811    0.6187614085    0.2835167597
H        1.1478183695    1.2062544496    0.0896734937
C       -0.9212966643    1.6154519772    0.5341495163
C       -0.0060934296   -0.2244272077   -0.9568046131
C       -1.0814606617   -1.2830123314   -0.8758505627
C        0.7008902717   -0.0332817580   -2.0795703562
H        1.9286791205   -1.7192382989    2.3092391594
H        2.6431131929   -0.6010977567    1.1358810440
H        1.5804585561   -1.8940447746    0.5810356318
H       -0.3571852954   -0.8053671961    1.8146189071
H        0.7181707839    0.4597500976    2.3738307255
H       -0.6762411545    2.6079988247    0.1450299324
H       -1.8563521667    1.2927596254    0.0681254139
H       -1.1151259071    1.7328442942    1.6064509913
H       -2.0306208151   -0.8706577721   -0.5147056279
H       -0.7993838559   -2.0783546597   -0.1756633262
H       -1.2603249526   -1.7426843294   -1.8514940665
H        0.5171653816   -0.6173432853   -2.9790730475
H        1.4872548942    0.7167394108   -2.1346716116
21   
torsion grid (150,)
C        1.7029934401   -1.0333851334    1.3044723636
C        0.4669283102   -0.1441211557    1.4723058630
C        0.1330056926    0.6959404770    0.2214577122
H        1.0093626710    1.3287473393    0.0318594972
C       -1.0653607154    1.6378484023    0.4814190449
C       -0.0798090123   -0.1459020402   -1.0265315764
C       -1.1080737791   -1.2512958510   -0.9594141633
C        0.6199680655    0.0859683420   -2.1462053512
H        1.9227385001   -1.5815275572    2.2269659292
H        2.5845750597   -0.4325969372    1.0524833959
H        1.5694171865   -1.7644538701    0.5007177520
H       -0.4001992596   -0.7569913624    1.7513647093
H        0.6282233774    0.5476524506    2.3079738397
H       -0.9845011694    2.5468996412   -0.1221288478
H       -2.0267975530    1.1622766613    0.2672857777
H       -1.0844186759    1.9541773501    1.5310091623
H       -2.0841207681   -0.8791961293   -0.6279917472
H       -0.8086332859   -2.0264530446   -0.2440385754
H       -1.2411793851   -1.7275641985   -1.9343919487
H        0.4638622273   -0.4977911875   -3.0510900987
H        1.3724718130    0.8705281304   -2.1934097726
21   
torsion grid (165,)
C        1.6747274966   -0.9372909685    1.2594896749
C        0.4146367013   -0.0844198057    1.4367947098
C        0.0533534341    0.7573579218    0.1947482908
H        0.9045217942    1.4244742063    0.0060639803
C       -1.1728840107    1.6492512144    0.4718638840
C       -0.1354694244   -0.0821460832   -1.0591155165
C       -1.1607188956   -1.1913153615   -1.0153344421
C        0.5858066572    0.1539127618   -2.1641529089
H        1.9125987706   -1.4848198340    2.1778577808
H        2.5385570085   -0.3108614649    1.0084984828
H        1.5581014602   -1.6664878448    0.4514315948
H       -0.4342414864   -0.7247429222    1.7098695135
H        0.5558749689    0.6026735760    2.2802072554
H       -1.2711025657    2.4266863707   -0.2923001652
H       -2.1034389799    1.0739230264    0.5052739104
H       -1.0648802850    2.1532793484    1.4393890336
H       -2.1522726788   -0.8162024329   -0.7379173032
H       -0.8915787389   -1.9504739196   -0.2713219328
H       -1.2472580032   -1.6877507084   -1.9855039816
H        0.4512390787   -0.4306088291   -3.0720259477
H        1.3346649280    0.9427172936   -2.1963689847
21   
torsion grid (180,)
C        1.9000885593   -0.7317299956    1.2347605575
C        0.5878908993    0.0128846403    1.4995231159
C        0.1090277945    0.8763622334    0.3128163896
H        0.8955550847    1.6139547300    0.1076926355
C       -1.1674802342    1.6517472285    0.6897530478
C       -0.0820608190    0.0675264073   -0.9605006115
C       -1.0827948841   -1.0639687360   -0.9301905720
C        0.6133664234    0.3507495498   -2.0709784495
H        2.2178925986   -1.2962501319    2.1180193234
H        2.7029167072   -0.0312955463    0.9769528561
H        1.8022818003   -1.4339288593    0.4007686990
H       -0.1978187785   -0.7026776827    1.7732474040
H        0.7104513233    0.6708828750    2.3691415895
H       -1.5156911214    2.2677626257   -0.1456588863
H       -1.9810002505    0.9756115735    0.9742561286
H       -0.9759310680    2.3113831040    1.5434057041
H       -2.0834226161   -0.7080744446   -0.6594126270
H       -0.8051431946   -1.8212125743   -0.1873500933
H       -1.1517072375   -1.5570177083   -1.9034894363
H        0.4790821864   -0.2146432244   -2.9909407333
H        1.3405651394    1.1598039712   -2.0953729458
