16   
torsion grid (-165,)
C        5.4493745553    1.3604056199    1.5117823439
C        5.8601209380    0.2963401112    0.7041702513
C        4.0879745532    1.4181259470    1.8145563557
C        1.8058278898   -3.2232910582   -0.6560834524
C        0.8312633876   -2.3548698364   -0.2571527131
C        3.7229528493   -0.4679386015    0.5959117807
C        2.7792135705   -1.4874046209    0.1088469315
N        5.0091000736   -0.6218222443    0.2387631224
N        3.2154771746    0.5093147189    1.3666856887
N        3.0446768265   -2.6549505003   -0.4135879850
O        1.4408043179   -1.2376336335    0.2394078984
H        6.1503897515    2.1013695309    1.8828993015
H        6.9043237589    0.1757702271    0.4184738358
H        3.6808927439    2.2131055741    2.4379447794
H        1.7028934553   -4.2075131557   -1.0930233874
H       -0.2486746433   -2.3616006319   -0.2545006939
16   
torsion grid (-150,)
C        5.4476153215    1.3562318934    1.5205530752
C        5.8438899193    0.3513529878    0.6342363925
C        4.1006756900    1.3672296299    1.8866509668
C        1.7960760640   -3.2567475624   -0.5517871910
C        0.8316373254   -2.3128996329   -0.3507141016
C        3.7193367327   -0.4518769725    0.5753872775
C        2.7786075567   -1.4767726464    0.0888386882
N        4.9899380482   -0.5565404194    0.1525355321
N        3.2274569741    0.4651030689    1.4256146512
N        3.0350578982   -2.7072099726   -0.2632343986
O        1.4470764543   -1.1663112931    0.0686987486
H        6.1500391716    2.0894766488    1.9041917255
H        6.8761639481    0.2717959938    0.2959021271
H        3.7071729436    2.1146794755    2.5741900356
H        1.6866321889   -4.2829924265   -0.8757326940
H       -0.2430048482   -2.2795607596   -0.4519261807
16   
torsion grid (-135,)
C        5.4486982986    1.3496398641    1.5230756259
C        5.8265022145    0.4065511981    0.5646408313
C        4.1211472597    1.3025275874    1.9517799706
C        1.7763490996   -3.2869438905   -0.4486930984
C        0.8469289910   -2.2895912395   -0.4549255888
C        3.7220585292   -0.4496579419    0.5583939896
C        2.7844645483   -1.4828390969    0.0729144495
N        4.9723336612   -0.4969162450    0.0722584549
N        3.2493110404    0.4024448570    1.4827065697
N        3.0107890428   -2.7543462950   -0.1041740162
O        1.4781475864   -1.1245195864   -0.1108435912
H        6.1503101897    2.0795982597    1.9146242479
H        6.8430268659    0.3736611887    0.1750580445
H        3.7430452899    1.9988951736    2.6988928996
H        1.6466768118   -4.3398154807   -0.6598500935
H       -0.2096082786   -2.2257615933   -0.6685863065
16   
torsion grid (-120,)
C        5.4460104170    1.3471750148    1.5227824247
C        5.7976552884    0.4688864902    0.4961807734
C        4.1479121116    1.2346226946    2.0234136313
C        1.7376336694   -3.3042273527   -0.3416444381
C        0.8730330224   -2.2760577916   -0.5654058470
C        3.7236493523   -0.4562153207    0.5637907822
C        2.7865851043   -1.4988821888    0.0830893948
N        4.9433528480   -0.4375878543    0.0065250461
N        3.2789123351    0.3300058415    1.5564497425
N        2.9579826130   -2.7887598797    0.0807320902
O        1.5311409533   -1.1056867674   -0.2863694125
H        6.1465665731    2.0789838849    1.9128825193
H        6.7905869442    0.4898464798    0.0493737261
H        3.7930160178    1.8783894892    2.8268737995
H        1.5725899014   -4.3679874149   -0.4462444790
H       -0.1483322934   -2.1908356063   -0.9050230812
16   
torsion grid (-105,)
C        5.4472908512    1.3540608381    1.5182619389
C        5.7481831407    0.5398783542    0.4255487129
C        4.1963904751    1.1683193354    2.1089447080
C        1.6777906326   -3.3041717732   -0.2366052383
C        0.9245268652   -2.2695050326   -0.6973929094
C        3.7204243506   -0.4689498274    0.6062372293
C        2.7751072135   -1.5168352084    0.1370329947
N        4.8899600527   -0.3764861959   -0.0411593347
N        3.3248041439    0.2546561556    1.6635196916
N        2.8615749550   -2.8024214308    0.3002111060
O        1.6157801706   -1.1063085347   -0.4565239210
H        6.1499833646    2.0934686664    1.8900076119
H        6.7013996870    0.6205372645   -0.0946723642
H        3.8816235985    1.7612358620    2.9663381148
H        1.4601473219   -4.3634824341   -0.2469625698
H       -0.0327857932   -2.1727238548   -1.1869878290
16   
torsion grid (-90,)
C        5.4480461776    1.3568759444    1.4976787287
C        5.6629036296    0.6063029108    0.3409718168
C        4.2686098715    1.1004767108    2.1980946000
C        1.6140468983   -3.3039742842   -0.1451363541
C        1.0262434777   -2.3029851751   -0.8527034733
C        3.7012100584   -0.4899412713    0.6770477972
C        2.7363949213   -1.5328071789    0.2288592111
N        4.7932047782   -0.3211445310   -0.0807642113
N        3.3849855842    0.1778803582    1.7948108489
N        2.7125681935   -2.7910741569    0.5444894403
O        1.7397296768   -1.1494356837   -0.6214111848
H        6.1601316394    2.1045356563    1.8333864706
H        6.5542377060    0.7479223479   -0.2682394572
H        4.0198870889    1.6459412607    3.1070997927
H        1.3351461607   -4.3467209364   -0.0784993222
H        0.1759863854   -2.2227069496   -1.5130135752
16   
torsion grid (-75,)
C        5.4556621013    1.3557064098    1.4857096293
C        5.5763105630    0.6774156706    0.2719069199
C        4.3500671091    1.0330480775    2.2737812607
C        1.5399782551   -3.2675684955   -0.0694399566
C        1.1456525376   -2.3390046221   -0.9818411228
C        3.6767857149   -0.4867147509    0.7245880830
C        2.6878257880   -1.5094410152    0.2906822967
N        4.6897494904   -0.2463634883   -0.1204291125
N        3.4478833494    0.1166444106    1.8990360631
N        2.5349974992   -2.7193223309    0.7373814024
O        1.8833026932   -1.1989813447   -0.7681008275
H        6.1808260032    2.1011437151    1.7973715851
H        6.4036494931    0.8757021657   -0.4077777779
H        4.1740031252    1.5238909874    3.2297268215
H        1.1893600722   -4.2815769410    0.0665265132
H        0.4203725131   -2.3045195456   -1.7807666128
16   
torsion grid (-60,)
C        5.4727302572    1.3447356614    1.4884373367
C        5.5178006401    0.7463772457    0.2281761385
C        4.4279902738    0.9528518691    2.3273712432
C        1.4760979190   -3.2228923179   -0.0038651103
C        1.2653386006   -2.3973853518   -1.0661583516
C        3.6719579042   -0.4798295786    0.7337887654
C        2.6709429976   -1.4850643135    0.3040794444
N        4.6208336416   -0.1672474577   -0.1620997382
N        3.5138506440    0.0480600383    1.9565771314
N        2.3860153867   -2.6256093597    0.8617569280
O        2.0362229848   -1.2768082944   -0.8877351846
H        6.2067913742    2.0827053607    1.7968210027
H        6.2930280346    1.0027505019   -0.4923604632
H        4.3103462369    1.3809225983    3.3218018253
H        1.0491029066   -4.1958531592    0.1981628105
H        0.6523484403   -2.4289260598   -1.9544152996
16   
torsion grid (-45,)
C        5.4683118233    1.3409558226    1.4963746403
C        5.4519159236    0.8217968941    0.2007935939
C        4.4779186623    0.8767415015    2.3648896482
C        1.3887924106   -3.1651779282    0.0604052135
C        1.3459836623   -2.4618817454   -1.1066688515
C        3.6558776110   -0.4691761777    0.7293618329
C        2.6519505100   -1.4652599622    0.3018796071
N        4.5499489254   -0.0835841067   -0.1956338197
N        3.5590159719   -0.0199785617    1.9906614832
N        2.2343766512   -2.5166821097    0.9495392198
O        2.1623078428   -1.3711049375   -0.9708558696
H        6.2062785063    2.0728846625    1.8095688552
H        6.1814127496    1.1368026520   -0.5439728258
H        4.4094320079    1.2405860296    3.3891422871
H        0.8818964813   -4.0846885744    0.3202434269
H        0.8308908786   -2.5693462808   -2.0495915675
16   
torsion grid (-30,)
C        5.4687266612    1.3431741917    1.4969648793
C        5.3990273284    0.8963079242    0.1764080126
C        4.5339876971    0.8046444880    2.3848955736
C        1.3117696304   -3.1013762384    0.0978037175
C        1.4303157716   -2.5304356794   -1.1356060447
C        3.6581652071   -0.4647658560    0.7162599661
C        2.6587312757   -1.4598231744    0.2878685556
N        4.4988063134   -0.0069838427   -0.2268106444
N        3.6187341969   -0.0924610491    2.0062421589
N        2.1066086287   -2.4071980012    0.9960112502
O        2.2994861125   -1.4800308540   -1.0312167063
H        6.2048612533    2.0746616501    1.8152240715
H        6.0839055936    1.2696572528   -0.5837077795
H        4.5103437101    1.1068654991    3.4310565671
H        0.7204705816   -3.9559269053    0.3981646865
H        1.0060978812   -2.7154908180   -2.1113038170
16   
torsion grid (-15,)
C        5.4673230133    1.3415270483    1.4961370133
C        5.3420668151    0.9563123124    0.1603453887
C        4.5942982990    0.7317069347    2.4012468478
C        1.2323606155   -3.0401298977    0.1288570110
C        1.5094747661   -2.6135066800   -1.1377539486
C        3.6630971122   -0.4743078155    0.7156997315
C        2.6689670870   -1.4725606604    0.2886951304
N        4.4455659212    0.0500394680   -0.2430577553
N        3.6858256491   -0.1720606895    2.0247680763
N        1.9826632818   -2.3022985730    1.0284010760
O        2.4329405357   -1.6104740684   -1.0514476855
H        6.1997265992    2.0769535378    1.8138258266
H        5.9785102046    1.3841126637   -0.6131068756
H        4.6192420406    0.9783649789    3.4619307871
H        0.5549663342   -3.8194161397    0.4514466138
H        1.1724013237   -2.8803606348   -2.1284551119
16   
torsion grid (0,)
C        5.4595003559    1.3506747813    1.4979439841
C        5.2789514787    1.0290172976    0.1517236843
C        4.6515000589    0.6683499813    2.4117921643
C        1.1545298822   -2.9611588246    0.1259913735
C        1.5825576844   -2.6821289572   -1.1399279726
C        3.6650888188   -0.4732460849    0.7126126810
C        2.6756193949   -1.4749040846    0.2844461338
N        4.3864818251    0.1200449616   -0.2541183422
N        3.7524249136   -0.2436789035    2.0338064442
N        1.8607073238   -2.1797580910    1.0237461846
O        2.5583379925   -1.7304570104   -1.0542091545
H        6.1873373753    2.0897568957    1.8175533138
H        5.8662841539    1.5117203402   -0.6282692950
H        4.7269513257    0.8574041809    3.4819131218
H        0.3953792194   -3.6609511240    0.4488423634
H        1.3301463727   -3.0319961053   -2.1300064160
16   
torsion grid (15,)
C        5.4523922042    1.3572585289    1.4945113491
C        5.2093037937    1.0953059404    0.1452015223
C        4.7146669160    0.6070206656    2.4143742951
C        1.0789279110   -2.8810496447    0.1119714424
C        1.6497088437   -2.7589953444   -1.1218966666
C        3.6616714030   -0.4721376068    0.7144664840
C        2.6761824870   -1.4795995216    0.2889993650
N        4.3170405773    0.1847116444   -0.2579854740
N        3.8216656879   -0.3124752853    2.0390098807
N        1.7451141078   -2.0557284515    1.0016449026
O        2.6731803959   -1.8593410729   -1.0249719918
H        6.1773752016    2.1000965369    1.8119489461
H        5.7427629690    1.6301788391   -0.6394366487
H        4.8461259813    0.7428334147    3.4871239351
H        0.2432692410   -3.4964428940    0.4172237605
H        1.4776079103   -3.1971020569   -2.0938873408
16   
torsion grid (30,)
C        5.4654810056    1.3584127861    1.4715970657
C        5.5925784336   -0.0139955360    1.6924143548
C        4.3282266956    1.7723117315    0.7733756659
C        1.1714803543   -2.4416611592   -1.0008519358
C        1.5795542016   -3.2323508049    0.0333685020
C        3.6412415695   -0.3852153127    0.5837931675
C        2.6341124701   -1.3440762748    0.0951174764
N        4.6878607564   -0.8961457208    1.2539891253
N        3.4049650244    0.9128608360    0.3320160640
N        1.8582303035   -1.2391026665   -0.9493022807
O        2.5257636585   -2.5442438496    0.7411122447
H        6.2066208681    2.0663621194    1.8290557160
H        6.4437881031   -0.4229058378    2.2350547865
H        4.1447764721    2.8261013384    0.5678931386
H        0.4433086568   -2.6525155655   -1.7724831426
H        1.3257255204   -4.2187528320    0.3922201373
16   
torsion grid (45,)
C        5.4649405623    1.3567950861    1.4700037396
C        5.6313962808   -0.0223222823    1.6065777101
C        4.2852271525    1.7829582584    0.8557127136
C        1.2465169314   -2.4960843947   -1.0538656814
C        1.4994883878   -3.1838502689    0.0957015504
C        3.6360887805   -0.3761405321    0.5744418653
C        2.6242870464   -1.3351948185    0.0852943651
N        4.7234805741   -0.8997376593    1.1635818817
N        3.3576245559    0.9271439428    0.4133656776
N        1.9793966339   -1.3175414668   -1.0474567315
O        2.3927647880   -2.4549913501    0.8342433750
H        6.2088592665    2.0607398709    1.8297980088
H        6.5168236654   -0.4406628660    2.0831076677
H        4.0689228348    2.8419941229    0.7222126806
H        0.6010361582   -2.7638225836   -1.8794746412
H        1.1594977132   -4.1148329320    0.5242457026
16   
torsion grid (60,)
C        5.4711487423    1.3521671933    1.4760769054
C        5.6822538886   -0.0270163964    1.5161898133
C        4.2519121609    1.7809127398    0.9483428083
C        1.3372454120   -2.5699148764   -1.0913092925
C        1.4204180622   -3.1267807822    0.1485817846
C        3.6497894907   -0.3755723228    0.5601623517
C        2.6402239219   -1.3406024593    0.0634991962
N        4.7771647449   -0.9024379289    1.0622868647
N        3.3274294926    0.9247767162    0.4965120436
N        2.1315986626   -1.4291084749   -1.1308616429
O        2.2647553972   -2.3516272184    0.9022555744
H        6.2128155223    2.0543644285    1.8440373103
H        6.6013115856   -0.4470486749    1.9221256259
H        4.0002937418    2.8390496962    0.8934685921
H        0.7745393054   -2.9046336495   -1.9521915276
H        0.9831637748   -3.9848220395    0.6367681244
16   
torsion grid (75,)
C        5.4562132447    1.3531089012    1.4900372087
C        5.7235835813   -0.0152056214    1.4253866446
C        4.1947078715    1.7636893127    1.0569859801
C        1.4068110851   -2.6412840173   -1.1124431644
C        1.2944475647   -3.0387755375    0.1835407023
C        3.6554417595   -0.3863368509    0.5574202559
C        2.6564792827   -1.3620193405    0.0451684077
N        4.8279048276   -0.8961018679    0.9616334168
N        3.2813352471    0.8999090121    0.5946020195
N        2.2896877032   -1.5656379681   -1.1839420913
O        2.1019458366   -2.2272489411    0.9443537806
H        6.1894180102    2.0607282290    1.8646813441
H        6.6794696679   -0.4214698678    1.7525098303
H        3.9001823354    2.8116494029    1.0851193955
H        0.9263554000   -3.0446706986   -1.9933940802
H        0.7383534375   -3.7999629928    0.7097109430
16   
torsion grid (90,)
C        5.4466880602    1.3632582555    1.4870519878
C        5.7873983682    0.0208101267    1.3160425617
C        4.1367252525    1.7207163555    1.1651602956
C        1.4891106036   -2.7163992883   -1.1236746914
C        1.1579265701   -2.9222821858    0.1786588361
C        3.6877454882   -0.4266193759    0.5715925741
C        2.7127625020   -1.4216631844    0.0437605952
N        4.9132265565   -0.8855991819    0.8592690543
N        3.2460757726    0.8311610871    0.7068494649
N        2.4908379202   -1.7482816091   -1.1921584248
O        1.9400846039   -2.0916953671    0.9478074027
H        6.1629119311    2.0914532633    1.8551768187
H        6.7863836632   -0.3438469160    1.5499752857
H        3.7860495798    2.7456566126    1.2756556406
H        1.0883319033   -3.1859570768   -2.0116153343
H        0.4592059604   -3.5546739988    0.7052148788
16   
torsion grid (105,)
C        5.4418206935    1.3797850313    1.4754215300
C        5.8475743368    0.0724395605    1.2040110577
C        4.0903066054    1.6672268637    1.2780767639
C        1.5682878759   -2.7891752150   -1.0942727060
C        1.0335432233   -2.7821993841    0.1564335044
C        3.7219736703   -0.4762433182    0.6183867783
C        2.7693657413   -1.4898358938    0.0920706116
N        4.9941801762   -0.8666377200    0.7751295708
N        3.2202193644    0.7465113868    0.8443975395
N        2.6803566898   -1.9501547351   -1.1191351765
O        1.7932909144   -1.9411392012    0.9337856036
H        6.1412726737    2.1344357351    1.8217810111
H        6.8836831647   -0.2367413480    1.3330199743
H        3.6900089379    2.6623953463    1.4655686260
H        1.2397520887   -3.3269566145   -1.9731756213
H        0.2004789927   -3.2697529655    0.6399753511
16   
torsion grid (120,)
C        5.4389645547    1.3803051331    1.4676076516
C        5.8748704351    0.1057450270    1.1009490967
C        4.0662220254    1.6188028943    1.3836088764
C        1.6461881007   -2.8741545556   -1.0578808241
C        0.9580605445   -2.6759318105    0.1005336951
C        3.7344137270   -0.5068426464    0.6481058837
C        2.7925768879   -1.5270593619    0.1300150518
N        5.0306615790   -0.8482008843    0.6903523389
N        3.2036628383    0.6838968161    0.9670880432
N        2.8167086916   -2.1243476278   -1.0257667843
O        1.6791693456   -1.8018567112    0.8730170941
H        6.1320797861    2.1471083810    1.7994288885
H        6.9294902205   -0.1634113938    1.1372962738
H        3.6424102944    2.5866784537    1.6473051303
H        1.3859884646   -3.4903975206   -1.9077672013
H        0.0333576115   -3.0453089445    0.5179959716
16   
torsion grid (135,)
C        5.4418092051    1.3820351669    1.4691268400
C        5.8833959721    0.1389829069    1.0102460114
C        4.0609384768    1.5856816609    1.4802210403
C        1.7057647233   -2.9549826122   -1.0015377971
C        0.9105769495   -2.5889218529    0.0435693929
C        3.7345927053   -0.5086048753    0.6565630669
C        2.7941805012   -1.5285305327    0.1490064493
N        5.0401592833   -0.8158952188    0.6034808828
N        3.1965065367    0.6507786520    1.0691355873
N        2.9063902798   -2.2633574116   -0.9218588225
O        1.5927804092   -1.6636319406    0.7869794838
H        6.1354799349    2.1493386830    1.7984825133
H        6.9444402916   -0.1032801248    0.9693499688
H        3.6307776247    2.5268770949    1.8196020975
H        1.5010737974   -3.6550417227   -1.8002615912
H       -0.0742077374   -2.8625421798    0.3918900206
16   
torsion grid (150,)
C        5.4419543160    1.3828551958    1.4762199049
C        5.8813170042    0.1753344126    0.9273785376
C        4.0602362427    1.5574095112    1.5699284258
C        1.7475068567   -3.0283267165   -0.9321990457
C        0.8737239320   -2.5108286794   -0.0210896010
C        3.7285366002   -0.4951432685    0.6474400571
C        2.7861841096   -1.5124040213    0.1481755617
N        5.0358187602   -0.7723111148    0.5118776723
N        3.1927363608    0.6283894235    1.1536786318
N        2.9648321347   -2.3769412940   -0.8132600063
O        1.5244935033   -1.5303961152    0.6750341509
H        6.1382504739    2.1449149838    1.8118722154
H        6.9430361622   -0.0427003305    0.8196639819
H        3.6317759968    2.4692561103    1.9836836625
H        1.5864482535   -3.8118295324   -1.6604027584
H       -0.1529877088   -2.7029054070    0.2531017663
16   
torsion grid (165,)
C        5.4457622858    1.3773878691    1.4835031931
C        5.8780683006    0.2119391507    0.8447341015
C        4.0668739506    1.5173526696    1.6493059864
C        1.7800963940   -3.1022752629   -0.8576241017
C        0.8513328038   -2.4492531800   -0.0999714866
C        3.7264725392   -0.4844886717    0.6234714516
C        2.7818812851   -1.4999489043    0.1297349160
N        5.0312660476   -0.7260590369    0.4123587592
N        3.1968932171    0.5967118120    1.2211331261
N        3.0079285701   -2.4821232447   -0.7014140582
O        1.4787662210   -1.4161643453    0.5367263948
H        6.1438648483    2.1320457168    1.8318162536
H        6.9371042709    0.0216126292    0.6752115205
H        3.6423466820    2.3943701953    2.1360689771
H        1.6510290086   -3.9635950852   -1.4992431353
H       -0.2042743681   -2.5704111018    0.0932454114
16   
torsion grid (180,)
C        5.4446917709    1.3717007487    1.4996937509
C        5.8657703069    0.2535184457    0.7745047501
C        4.0729864025    1.4745820432    1.7366090711
C        1.7908918366   -3.1634290451   -0.7569753582
C        0.8292073701   -2.3918947942   -0.1709146769
C        3.7185651658   -0.4719643806    0.6130269275
C        2.7727124908   -1.4877667792    0.1238383949
N        5.0158469508   -0.6736702337    0.3262761741
N        3.2001225422    0.5610185234    1.2994885545
N        3.0264587315   -2.5721318908   -0.5596807316
O        1.4439862763   -1.3133968979    0.3981951671
H        6.1455805943    2.1186635978    1.8587275501
H        6.9186076806    0.0946129429    0.5446629576
H        3.6570667146    2.3132755340    2.2933162343
H        1.6803520566   -4.0921598475   -1.3005305891
H       -0.2443538849   -2.4498436941   -0.0686417986
