32   
torsion grid (-45,)
C       -0.4892447221    3.2010382572   -0.7102279628
C        0.1712640011    2.0603749762   -0.3043760559
C       -2.0238397208   10.1463084706   -2.8947195262
C       -3.0655859620   11.1839873640   -2.9632003631
C       -3.9998905696    4.2092826746   -1.5991849849
C       -1.9158435028    0.8107811678   -0.3685578618
C       -4.5938710002    2.9483743557   -1.3944347502
C       -1.8872106016    3.1998315266   -0.9619890094
C       -2.6137603367    1.9767185848   -0.7881299770
C       -2.6347993094    4.3502367346   -1.3841152637
C       -0.5616281858    0.8619908219   -0.1355617794
C       -2.6643905793    8.9840918706   -2.5055907182
C       -4.3535845238   10.6686648916   -2.9692584964
C       -2.0204207357    7.7630526721   -2.0914598764
C       -5.6560317826   11.3966367609   -3.0556845860
N       -3.9563229606    1.8562645031   -1.0040033789
N       -2.6772099486    6.6536839956   -1.9771513851
N       -1.9945319783    5.5616908953   -1.5685629245
S       -4.1955590186    8.9493266226   -3.4174329796
Cl       0.2977405073   -0.5791824069    0.3823381673
H        0.1029355313    4.1040954755   -0.8325905084
H        1.2395941537    2.0719408468   -0.1151854327
H       -0.9740219483   10.3575168722   -2.7052522608
H       -2.8547443300   12.2468862835   -2.8807032979
H       -4.5931625393    5.0574566248   -1.9170460440
H       -2.4847219646   -0.1040622190   -0.2425335477
H       -5.6652282693    2.8422851423   -1.5643402407
H       -0.9562789453    7.8350097140   -1.8231714399
H       -6.1547914034   11.2228545048   -4.0167214201
H       -6.3440692605   11.0662792333   -2.2692163801
H       -5.4980182196   12.4734973621   -2.9451189659
H       -0.9978031006    5.6391560276   -1.3852220624
32   
torsion grid (-30,)
C       -0.4821309199    3.1802476892   -0.7420655828
C        0.1932183731    2.0364181384   -0.3708220354
C       -2.0966890251   10.1717325703   -2.7430063912
C       -3.0764406632   11.2101760270   -2.9391571579
C       -4.0170983211    4.1865601163   -1.5289835600
C       -1.8896028221    0.7785180785   -0.4051366092
C       -4.6008127343    2.9202223144   -1.3294807004
C       -1.8856333183    3.1766311140   -0.9603279765
C       -2.6027254006    1.9477415240   -0.7885246518
C       -2.6473154923    4.3310181764   -1.3462851555
C       -0.5303420267    0.8321733340   -0.2042273454
C       -2.7165752125    8.9784415062   -2.4163222438
C       -4.3687855164   10.7300271793   -2.9998024337
C       -2.0627543196    7.7538709345   -2.0258182957
C       -5.6382309711   11.4938946690   -3.2190082260
N       -3.9497858035    1.8244062268   -0.9729214724
N       -2.7134580844    6.6442008824   -1.9034854530
N       -2.0163360491    5.5463632786   -1.5274125570
S       -4.3219898268    8.9748321933   -3.1491580996
Cl       0.3473818980   -0.6134928472    0.2691762832
H        0.1028067832    4.0882088804   -0.8630306223
H        1.2656791957    2.0501127909   -0.2068419038
H       -1.0435771260   10.3628966119   -2.5535282728
H       -2.8385158152   12.2692920013   -2.9684271278
H       -4.6221297877    5.0365166983   -1.8184002229
H       -2.4513256125   -0.1408786208   -0.2801392483
H       -5.6757499263    2.8124879523   -1.4742386753
H       -0.9883376836    7.8239280080   -1.8037458625
H       -6.1115481612   11.2313058200   -4.1722680407
H       -6.3660337897   11.2904155065   -2.4257198904
H       -5.4341212230   12.5682079627   -3.2283698415
H       -1.0150731966    5.6244730576   -1.3730268026
32   
torsion grid (-15,)
C       -0.4672400585    3.1653126098   -0.7611577382
C        0.2173220416    2.0228865224   -0.4025521727
C       -2.1214768116   10.1793961012   -2.6263040874
C       -3.0742347385   11.2095742338   -2.9091283456
C       -4.0151308920    4.1609401280   -1.5005672379
C       -1.8610867559    0.7573032909   -0.4159121696
C       -4.5916254483    2.8917686714   -1.2987329206
C       -1.8732877277    3.1573612771   -0.9619938156
C       -2.5835099410    1.9251041855   -0.7860896974
C       -2.6437151438    4.3108605796   -1.3339309293
C       -0.4996621851    0.8154056627   -0.2314999149
C       -2.7352811945    8.9668111741   -2.3819102066
C       -4.3700780580   10.7523907072   -3.0064629455
C       -2.0777302509    7.7384675477   -2.0056691486
C       -5.6102144311   11.5385492452   -3.3088137887
N       -3.9322760489    1.7970200915   -0.9542993418
N       -2.7251513218    6.6293263970   -1.8740586786
N       -2.0194712715    5.5285332023   -1.5176857413
S       -4.4065949018    9.0079085868   -2.8990370425
Cl       0.3892409764   -0.6287649495    0.2257317820
H        0.1127402787    4.0758583157   -0.8864350377
H        1.2916959097    2.0401339906   -0.2519559085
H       -1.0659011811   10.3616031146   -2.4483691826
H       -2.8142539205   12.2584426822   -3.0163645584
H       -4.6272442072    5.0091796249   -1.7797546332
H       -2.4176773485   -0.1647392529   -0.2874768670
H       -5.6678628105    2.7805500199   -1.4308867253
H       -0.9962405105    7.8055713540   -1.8217210967
H       -6.0833610783   11.2087336946   -4.2405907860
H       -6.3528632342   11.4392261123   -2.5094861640
H       -5.3630970902   12.5984033370   -3.4130939966
H       -1.0173760893    5.6102994462   -1.3718286966
32   
torsion grid (0,)
C       -0.4735873855    3.1683753550   -0.7623924558
C        0.2130204607    2.0250735451   -0.4105274169
C       -2.1575681075   10.2030391399   -2.5485330635
C       -3.0869104116   11.2217882804   -2.9094865907
C       -4.0234657947    4.1602732459   -1.4968760014
C       -1.8624281896    0.7547735730   -0.4317938279
C       -4.5973628950    2.8891331998   -1.3004238871
C       -1.8794600030    3.1582162655   -0.9641605586
C       -2.5870161348    1.9234677645   -0.7948641134
C       -2.6521659907    4.3120729558   -1.3305522488
C       -0.5011259223    0.8148536073   -0.2472173620
C       -2.7510666933    8.9695061793   -2.3676255538
C       -4.3818116965   10.7684957313   -3.0032721074
C       -2.0907166375    7.7406768705   -2.0008033992
C       -5.6132708481   11.5485597574   -3.3564135248
N       -3.9356834880    1.7937310254   -0.9625648914
N       -2.7390623657    6.6342623188   -1.8542844065
N       -2.0303208753    5.5316186168   -1.5084764712
S       -4.4756257351    9.0624878820   -2.6447884596
Cl       0.3910911802   -0.6300842675    0.2011434854
H        0.1042728642    4.0812562046   -0.8803313868
H        1.2872155685    2.0438417877   -0.2588862848
H       -1.0910728594   10.3672029709   -2.4256157221
H       -2.8121008113   12.2556788399   -3.0944047706
H       -4.6373161203    5.0082633388   -1.7729201501
H       -2.4171328182   -0.1691392716   -0.3086881673
H       -5.6734981230    2.7765471184   -1.4323079762
H       -1.0033449158    7.8019925575   -1.8536028515
H       -6.0999755893   11.1510884884   -4.2538916475
H       -6.3499463219   11.5296386038   -2.5456447052
H       -5.3496940342   12.5919083566   -3.5490372078
H       -1.0262327073    5.6116143012   -1.3763467954
32   
torsion grid (15,)
C       -0.4705443648    3.1683585836   -0.7584899292
C        0.2153657705    2.0231030481   -0.4116678657
C       -2.1463392016   10.2132921675   -2.4823957834
C       -3.0757899004   11.2087564711   -2.9228335438
C       -4.0183374686    4.1637643128   -1.4993404003
C       -1.8593257747    0.7521661672   -0.4486710505
C       -4.5926831211    2.8917301704   -1.3098242609
C       -1.8755530132    3.1586749626   -0.9663429220
C       -2.5833795599    1.9228747976   -0.8062719319
C       -2.6473195093    4.3140122335   -1.3297429791
C       -0.4986168107    0.8113257815   -0.2594429237
C       -2.7414704050    8.9729052598   -2.3634898636
C       -4.3737422012   10.7545729036   -3.0047323188
C       -2.0812209284    7.7410623239   -2.0038040007
C       -5.5992233811   11.5189903487   -3.4061924665
N       -3.9317324357    1.7942767769   -0.9772591905
N       -2.7334528532    6.6393181848   -1.8382196769
N       -2.0248839156    5.5344912108   -1.5005405234
S       -4.4848858947    9.1219968763   -2.3893535018
Cl       0.3927291063   -0.6362497093    0.1820457126
H        0.1068451621    4.0828692902   -0.8655997789
H        1.2888299764    2.0416415152   -0.2549060763
H       -1.0734598106   10.3695434130   -2.4224275371
H       -2.7922982741   12.2221867501   -3.1908183271
H       -4.6311084104    5.0129733757   -1.7741240949
H       -2.4141065478   -0.1726624765   -0.3330748059
H       -5.6685661928    2.7799284170   -1.4443085405
H       -0.9887216951    7.7917826927   -1.8950256702
H       -6.0968723344   11.0561057773   -4.2655061101
H       -6.3303161091   11.5718523508   -2.5916058348
H       -5.3268604521   12.5413524542   -3.6815353771
H       -1.0180937448    5.6091981486   -1.3867480080
32   
torsion grid (30,)
C       -0.4639062506    3.1642952750   -0.7729515228
C        0.2169735362    2.0118695296   -0.4403339333
C       -2.1358136017   10.2443147989   -2.3733117187
C       -3.0672587071   11.2094774716   -2.9002065660
C       -4.0113392860    4.1879945590   -1.4791667705
C       -1.8654246121    0.7537908797   -0.4715669221
C       -4.5913066484    2.9177721303   -1.2939719338
C       -1.8704513986    3.1648451077   -0.9705327159
C       -2.5843848830    1.9320325253   -0.8143204667
C       -2.6381792313    4.3270853661   -1.3193585071
C       -0.5029935830    0.8030460229   -0.2923116070
C       -2.7146120429    8.9881271188   -2.3297124086
C       -4.3548297205   10.7223586350   -2.9960972135
C       -2.0549934703    7.7536015435   -1.9828112535
C       -5.5882625765   11.4296304028   -3.4667599246
N       -3.9348011941    1.8135783210   -0.9753254445
N       -2.7143869590    6.6566297158   -1.8049103393
N       -2.0095265236    5.5456397003   -1.4860916385
S       -4.4555367950    9.1935660022   -2.1255530193
Cl       0.3828301794   -0.6532312193    0.1309535542
H        0.1183443866    4.0761344685   -0.8764425762
H        1.2916230215    2.0225730904   -0.2912023455
H       -1.0612601874   10.4027636940   -2.3326813108
H       -2.7827860083   12.1970447023   -3.2508218606
H       -4.6205287874    5.0431657956   -1.7435249320
H       -2.4252279390   -0.1683743981   -0.3589340807
H       -5.6688514581    2.8133999174   -1.4204810182
H       -0.9584079896    7.7892359443   -1.9133684994
H       -6.0791497752   10.8759860270   -4.2748726714
H       -6.3212602112   11.5495075735   -2.6605616842
H       -5.3321082271   12.4248290106   -3.8407297259
H       -1.0004151547    5.6115111484   -1.3869395190
32   
torsion grid (45,)
C       -0.4762230028    3.1786650418   -0.8235719367
C        0.1998985370    2.0142660406   -0.5250076005
C       -2.1281686408   10.3002701438   -2.2091334437
C       -3.0841432855   11.2087752074   -2.8628647989
C       -4.0283148898    4.2493060145   -1.4298709086
C       -1.8962779639    0.7784846329   -0.5271028620
C       -4.6185500855    2.9826838813   -1.2512239191
C       -1.8870185268    3.1967877818   -0.9879419429
C       -2.6106212184    1.9692077623   -0.8344175515
C       -2.6506735938    4.3714314351   -1.3003022269
C       -0.5295907920    0.8108178505   -0.3790436019
C       -2.7065042637    9.0445484829   -2.2436685092
C       -4.3531657266   10.6648643879   -2.9982026335
C       -2.0486762573    7.8027971090   -1.9236153428
C       -5.5830013938   11.2833508286   -3.5802158593
N       -3.9656265192    1.8674671506   -0.9655808489
N       -2.7147547387    6.7074121721   -1.7457886294
N       -2.0135189601    5.5875635850   -1.4635382684
S       -4.4281480543    9.2961806564   -1.8566964019
Cl       0.3500360146   -0.6608897279    0.0005363433
H        0.1132160722    4.0859011258   -0.9267677391
H        1.2777950139    2.0114168554   -0.4009877700
H       -1.0558607750   10.4776627136   -2.1729328221
H       -2.7950335514   12.1538803398   -3.3147560552
H       -4.6335714760    5.1155277828   -1.6659399422
H       -2.4630642081   -0.1395579870   -0.4157824440
H       -5.6997919959    2.8914719599   -1.3538311337
H       -0.9494300591    7.8220207939   -1.8945725087
H       -6.0461646271   10.6182220279   -4.3179005534
H       -6.3367559116   11.4887177674   -2.8106652628
H       -5.3365858035   12.2276379760   -4.0746068554
H       -1.0019187237    5.6426828345   -1.3816314359
