25   
torsion grid (-165,)
C        5.0542904951    1.6360526744   -4.1679609005
C        4.0232645202    0.7435785068   -4.2626042340
C        5.6320359291   -0.5571364106   -5.0644311339
C        2.1761538386    2.2719263834   -3.3154997163
C        0.3598697034    3.4551442322   -2.3693523531
C        4.3962593266   -3.6997707863   -5.4395966411
C        2.5781251878    0.9296096705   -3.8910279771
N        4.3612743099   -0.4952479874   -4.7866302223
N        6.2384223123   -1.7019860963   -5.5906687601
O        2.8696514322    3.2657805698   -3.2137833630
O        7.0492783247   -4.0697311001   -5.3879013140
O        5.9004286096   -3.0441112419   -3.3534736052
O        0.8821926354    2.2273589623   -2.9223618058
S        6.5384702413    0.8988029048   -4.7024332808
S        6.0059817833   -3.2274930163   -4.7989539129
H        5.0195245049    2.6629554592   -3.8376714729
H       -0.6766752459    3.2385729499   -2.1126538909
H        0.4154524244    4.2584515318   -3.1075188534
H        0.9260230820    3.7423368910   -1.4805349270
H        4.1460302146   -4.6510157877   -4.9661882258
H        3.6912352796   -2.9157338930   -5.1635575192
H        4.4817295055   -3.8055438173   -6.5207498322
H        1.9500663837    0.7495033759   -4.7717995018
H        2.2867101024    0.1539725552   -3.1745571445
H        7.2157701914   -1.6195056152   -5.8631558751
25   
torsion grid (-150,)
C        5.0330469300    1.6220544449   -4.1155780505
C        3.9701057271    0.7762828702   -4.2829637346
C        5.5504427882   -0.5421286803   -5.1092484325
C        2.1599497498    2.3188003346   -3.2888142673
C        0.3697825631    3.5141111950   -2.3086055292
C        4.5393464155   -3.9049129839   -5.4554661206
C        2.5235212912    0.9994399429   -3.9375604184
N        4.2753706501   -0.4437967222   -4.8626242768
N        6.1167425636   -1.7014318203   -5.6574956766
O        2.8888265124    3.2762291209   -3.1119121143
O        7.2070465569   -3.9145301711   -5.1163377190
O        5.7254739452   -2.8608268413   -3.3289233387
O        0.8564374694    2.3024270678   -2.9255377210
S        6.5004409792    0.8553678911   -4.6463232611
S        6.0070589924   -3.1690063930   -4.7286792533
H        5.0265727061    2.6322283400   -3.7353609224
H       -0.6798772601    3.3239891687   -2.0864680435
H        0.4728331838    4.3580537956   -2.9945042915
H        0.9265104965    3.7239393943   -1.3925992162
H        4.3541261947   -4.8360087639   -4.9168210721
H        3.7226770051   -3.1957766373   -5.3162342411
H        4.7366595896   -4.0895698638   -6.5111004233
H        1.9129346750    0.8994459397   -4.8429781071
H        2.1828951012    0.1936257033   -3.2785778422
H        7.0814723444   -1.6104359623   -5.9723441206
25   
torsion grid (-135,)
C        5.4844437217    1.5850188241   -4.7559761930
C        4.5819181770    0.7753471791   -4.1219070153
C        6.1860199357   -0.7222262328   -4.4373301087
C        2.7358174090    2.5394005446   -3.7707637563
C        0.9032109192    3.9812702867   -3.3743033220
C        9.0881206362   -2.6736123739   -5.7365579164
C        3.2062976010    1.1085007995   -3.6134156485
N        4.9912406391   -0.5387708604   -3.9520675524
N        6.8801195531   -1.9397153811   -4.3137706326
O        3.3572848136    3.4700326013   -4.2473797634
O        6.9485620794   -4.2262812139   -5.4249035384
O        6.7780098995   -2.1533610701   -6.9200540436
O        1.4770586931    2.6590500573   -3.2881689146
S        6.9293789980    0.6957355475   -5.1349803252
S        7.2972299903   -2.8399890281   -5.7400092049
H        5.3722687842    2.6238252281   -5.0267706872
H       -0.0956527391    3.8912100088   -2.9483305371
H        0.8509916062    4.3058437749   -4.4159832799
H        1.5033701037    4.6941772696   -2.8043222777
H        9.4542938404   -3.2308160005   -6.6007687662
H        9.3353841174   -1.6155889101   -5.8281304558
H        9.4724522812   -3.0940224585   -4.8075503967
H        2.4707057331    0.4592732030   -4.1015770640
H        3.1415544309    0.8522265259   -2.5496898134
H        6.3701259369   -2.5729205924   -3.6950574208
25   
torsion grid (-120,)
C        5.3996793329    1.6364823768   -4.9219257853
C        4.5731587966    0.8345946587   -4.1838469802
C        6.1929966081   -0.6323271264   -4.5603922853
C        2.7085162148    2.5638068432   -3.7637391140
C        0.8738775257    3.9755236921   -3.2783016276
C        9.1543365595   -2.9139841632   -5.5175275582
C        3.2305731664    1.1533242630   -3.5856748349
N        5.0352654472   -0.4583150747   -3.9870015987
N        6.9293311975   -1.8224931725   -4.4001403175
O        3.2598116255    3.4873692617   -4.3314681283
O        6.7721959194   -4.0841919098   -5.6099590316
O        7.1636449397   -1.9580839264   -6.9846830914
O        1.4911193073    2.6738600923   -3.1818616156
S        6.8311136952    0.7658751081   -5.3879825692
S        7.3824622670   -2.7655860613   -5.7875029813
H        5.2336017961    2.6564944648   -5.2336031879
H       -0.0831012325    3.8804557044   -2.7659426897
H        0.7257095577    4.2494895294   -4.3253130036
H        1.4982434296    4.7295277890   -2.7935609405
H        9.5436240972   -3.5238549350   -6.3347653208
H        9.5882150296   -1.9142352021   -5.5367180956
H        9.3202252435   -3.4015684899   -4.5568054428
H        2.4786767982    0.4665450821   -3.9908895166
H        3.2521863935    0.9397375878   -2.5108810415
H        6.4306057590   -2.4381237207   -3.7549200054
25   
torsion grid (-105,)
C        5.2772246200    1.7166693563   -5.0622458172
C        4.5447477537    0.9124966827   -4.2340176631
C        6.1846918650   -0.5065343266   -4.6989649263
C        2.6412016773    2.5766136566   -3.7328598563
C        0.7835745036    3.9251248386   -3.1624566556
C        9.1214408667   -3.0400011542   -5.4311341926
C        3.2460018942    1.2025699652   -3.5333593387
N        5.0722672800   -0.3551744728   -4.0353924099
N        6.9720650301   -1.6663994581   -4.5396180474
O        3.0986293113    3.4955898339   -4.3849524024
O        6.6409721528   -3.8096178098   -5.9735940637
O        7.5282854085   -1.6678942514   -7.0558970510
O        1.4698532733    2.6592157057   -3.0584927544
S        6.6943116652    0.8806127398   -5.6283968885
S        7.4518657156   -2.5918115362   -5.9266939765
H        5.0454290099    2.7176938516   -5.3931892390
H       -0.1227859090    3.8124974387   -2.5681238920
H        0.5374164577    4.1397861458   -4.2048621895
H        1.4073609108    4.7298890636   -2.7667433084
H        9.5246847972   -3.6602282997   -6.2336733226
H        9.7003186394   -2.1243845855   -5.3137977981
H        9.0730082029   -3.6043846996   -4.4993181494
H        2.4964441506    0.4617437250   -3.8339380112
H        3.3721500894    1.0493079045   -2.4552863717
H        6.4935446889   -2.2879886263   -3.8841274269
25   
torsion grid (-90,)
C        5.1723394161    1.6738690325   -5.1403432135
C        4.5237534681    0.8942088263   -4.2236516530
C        6.1869421805   -0.4888587071   -4.7125490588
C        2.5797437293    2.5073001205   -3.7111222407
C        0.6862913906    3.8012744050   -3.1325093054
C        8.9779097452   -3.2909702517   -5.3100288763
C        3.2633659342    1.1804218563   -3.4546716664
N        5.1120110444   -0.3402275185   -3.9890007455
N        7.0241333160   -1.6133612751   -4.5403574138
O        2.9593601142    3.4031558945   -4.4406522674
O        6.4755113085   -3.6275628890   -6.1352581038
O        7.7756224876   -1.6053205967   -6.9886173493
O        1.4382717446    2.5775971748   -2.9858350882
S        6.5843166520    0.8587748187   -5.7491326751
S        7.4556346692   -2.5598216202   -5.9288806055
H        4.8822001822    2.6461057477   -5.5091364163
H       -0.1863762666    3.6832916788   -2.4906810192
H        0.3842497548    3.9397053483   -4.1731057836
H        1.2862791165    4.6571700022   -2.8149337201
H        9.3501440128   -3.9371232493   -6.1069637709
H        9.6808294608   -2.4874095557   -5.0935822999
H        8.7536980171   -3.8802951943   -4.4198761668
H        2.5327717745    0.3858547281   -3.6429019107
H        3.4710004400    1.1188306932   -2.3798054286
H        6.5804756880   -2.2221823868   -3.8483955454
25   
torsion grid (-75,)
C        5.1627988590    1.7106882727   -5.1938719437
C        4.5763520107    0.9426630117   -4.2263825249
C        6.2869326540   -0.3840988811   -4.7072129999
C        2.5776216228    2.4893826987   -3.7190475162
C        0.6452666204    3.7215031471   -3.1344401619
C        8.8450010889   -3.4377672221   -5.2786608123
C        3.3249992410    1.2033628209   -3.4339238662
N        5.2265951141   -0.2534578602   -3.9594022766
N        7.1783205478   -1.4682705519   -4.5381763835
O        2.8979552956    3.3731936850   -4.4904559869
O        6.3567148030   -3.3260116363   -6.2293996768
O        8.0070110493   -1.5342601567   -6.9555405351
O        1.4536171322    2.5372854021   -2.9653085159
S        6.5959939102    0.9367743330   -5.8058569425
S        7.4934298021   -2.4503009350   -5.9382105765
H        4.8204036772    2.6547075021   -5.5901064828
H       -0.2031772726    3.5909509805   -2.4632374921
H        0.3085636286    3.8073910321   -4.1700543678
H        1.2161186852    4.6134781365   -2.8663095405
H        9.1464537717   -4.1085293995   -6.0849749179
H        9.6571364931   -2.7668027826   -5.0014945747
H        8.4860038929   -4.0149684608   -4.4252326890
H        2.6253649380    0.3718029088   -3.5736427845
H        3.5630499638    1.1907694246   -2.3637295330
H        6.7822687547   -2.0619587512   -3.8041463132
25   
torsion grid (-60,)
C        4.2217433977    1.0473534944   -6.0302402192
C        3.7429544408    0.3444913533   -4.9593732964
C        5.4512430642   -0.9694817975   -5.4782674934
C        1.7507484110    1.8807835028   -4.3984535546
C       -0.1445059347    3.1253342339   -3.7248757046
C        8.5104728248   -3.5828011116   -5.4803017882
C        2.5753001383    0.6552493527   -4.0639462248
N        4.4570639207   -0.8042927333   -4.6509849949
N        6.2587242913   -2.1291598066   -5.4377033561
O        1.9455984452    2.6773748185   -5.2963819993
O        8.3875796199   -1.0819641764   -6.3956704109
O        8.2929303277   -1.4691499016   -3.8780112126
O        0.7205503762    1.9866780382   -3.5259154505
S        5.6119002917    0.2542921399   -6.7128663274
S        7.9703257016   -1.8819172756   -5.2452117377
H        3.8552360657    1.9815613338   -6.4282014053
H       -0.9021040180    3.0528503865   -2.9449948421
H       -0.6044625277    3.0853163451   -4.7149000820
H        0.4214678199    4.0546418659   -3.6281291350
H        9.5983905200   -3.5648380536   -5.3962361091
H        8.0846951476   -4.2084814177   -4.6944133938
H        8.1993485977   -3.9088317898   -6.4720605916
H        1.8987497570   -0.2061740032   -4.0360830020
H        2.9275290943    0.7666677574   -3.0316734660
H        5.9205200924   -2.6936699100   -4.6534541251
25   
torsion grid (-45,)
C        4.2164786242    0.9739468254   -6.0338589447
C        3.7625548577    0.3426144252   -4.9092438418
C        5.4883830598   -0.9778079617   -5.3527923746
C        1.7479822642    1.8797540256   -4.4342364488
C       -0.1645381868    3.1326505428   -3.8281286509
C        8.5023512723   -3.5891916885   -5.7006637627
C        2.5999346657    0.6968719027   -4.0232296633
N        4.4994874385   -0.7695374907   -4.5283090806
N        6.2932392927   -2.1330510107   -5.2402050546
O        1.9174121968    2.6148814771   -5.3880163307
O        8.3713921684   -0.9739184721   -6.1881550758
O        8.4406856169   -1.7753974749   -3.7641834853
O        0.7245647727    2.0273317388   -3.5596632720
S        5.6177323537    0.1612092917   -6.6698566929
S        8.0165950360   -1.9451688698   -5.1550679080
H        3.8324112238    1.8731389559   -6.4913860639
H       -0.9138965946    3.0998003751   -3.0376705784
H       -0.6320341368    3.0155529395   -4.8084574911
H        0.3837035751    4.0771296219   -3.8012621228
H        9.5935374094   -3.6046872937   -5.6835209399
H        8.1041217933   -4.3283244294   -5.0041094933
H        8.1221464476   -3.7417797838   -6.7099314630
H        1.9402369964   -0.1723478846   -3.9241058074
H        2.9618017273    0.8892863141   -3.0062954129
H        5.9748613267   -2.6466470325   -4.4145374937
25   
torsion grid (-30,)
C        4.1956461504    0.8990044419   -6.0072707056
C        3.7675219426    0.3396284317   -4.8360231099
C        5.5078704974   -0.9828049662   -5.2108265434
C        1.7362186230    1.8769111427   -4.4430621086
C       -0.1885043739    3.1407103456   -3.9017803924
C        8.4634132278   -3.5202793639   -5.8865299077
C        2.6107985098    0.7380662107   -3.9613469552
N        4.5260297133   -0.7333356627   -4.3897074089
N        6.3214484863   -2.1214671257   -5.0315822362
O        1.8828176600    2.5462127540   -5.4477647400
O        8.3783404133   -0.8659074395   -5.9287093267
O        8.5407340194   -2.0646746897   -3.6725889691
O        0.7209146935    2.0702372365   -3.5680575837
S        5.6046297620    0.0678874194   -6.6023482120
S        8.0479526910   -1.9842819767   -5.0484505536
H        3.7933642852    1.7598520159   -6.5195980356
H       -0.9278516379    3.1523581023   -3.1013648188
H       -0.6657109692    2.9481453727   -4.8653735429
H        0.3451269957    4.0927693327   -3.9482168145
H        9.5531503982   -3.5575309207   -5.9363934508
H        8.0796402669   -4.3568290996   -5.3015977233
H        8.0251288811   -3.4952227595   -6.8837192546
H        1.9657649019   -0.1315645515   -3.7933766468
H        2.9819480276    1.0060421694   -2.9650552834
H        6.0329543585   -2.5866542756   -4.1684010436
25   
torsion grid (-15,)
C        4.0978859471    0.7028317557   -6.1490669990
C        3.7472638166    0.2668206220   -4.9011582733
C        5.4566885093   -1.1015341921   -5.2524100295
C        1.7599326678    1.8648267038   -4.5278779494
C       -0.1110526691    3.2069209453   -3.9871962460
C        8.5040778770   -3.2985257010   -6.1758187591
C        2.6526598350    0.7627901796   -3.9969006522
N        4.5319695264   -0.7606557327   -4.3988883477
N        6.2993239522   -2.2071125417   -5.0261496342
O        1.8479261913    2.4322006560   -5.6000354877
O        8.3438810813   -0.7161307305   -5.6076130673
O        8.4823970633   -2.4036298122   -3.6798042845
O        0.8068513581    2.1575704314   -3.6119789429
S        5.4544664254   -0.2045756393   -6.7502329643
S        8.0248805752   -2.0117576671   -5.0138748184
H        3.6650884960    1.5122001505   -6.7172104596
H       -0.7978593355    3.3045561781   -3.1468796470
H       -0.6502522688    2.9335398541   -4.8970136198
H        0.4284360836    4.1418010515   -4.1554031125
H        9.5936199663   -3.2726076279   -6.2362358315
H        8.1607662820   -4.2594010873   -5.7921372242
H        8.0543263871   -3.0720888093   -7.1424764277
H        2.0119316130   -0.0772891998   -3.7065668452
H        3.0906286440    1.1169668623   -3.0563128671
H        6.0281991615   -2.6577932191   -4.1502480321
25   
torsion grid (0,)
C        4.0435223657    0.4970401201   -6.2095929866
C        3.7410707922    0.1840588832   -4.9122800913
C        5.3992180333   -1.2571335015   -5.2092914109
C        1.7990156911    1.8509834808   -4.6076599654
C       -0.0109843748    3.2904382857   -4.1113455695
C        8.4967107354   -3.0528269493   -6.3102744809
C        2.7009317136    0.7906273563   -4.0111348260
N        4.5249605107   -0.8130451762   -4.3516573766
N        6.2562529808   -2.3379559516   -4.9322378299
O        1.8303293398    2.2913051651   -5.7410462969
O        8.2654217437   -0.6796940008   -5.1668466519
O        8.4278730089   -2.7580733642   -3.6699333304
O        0.9117449336    2.2690794841   -3.6750749908
S        5.3383075614   -0.5093225296   -6.7861329602
S        7.9749768623   -2.0834934167   -4.8874249817
H        3.5977716514    1.2575364594   -6.8325110987
H       -0.6373019795    3.5031465956   -3.2454452580
H       -0.6154373773    2.9257039885   -4.9449492962
H        0.5321123135    4.1850358456   -4.4242986278
H        9.5836351808   -2.9680925119   -6.3633173418
H        8.1917384050   -4.0873338307   -6.1542133214
H        8.0335119212   -2.6308474467   -7.2025966846
H        2.0627120667   -0.0037631961   -3.6083361505
H        3.1903390187    1.2270718755   -3.1327015925
H        5.9922723258   -2.7744475147   -4.0470508559
25   
torsion grid (15,)
C        4.8143757772    1.5917918003   -5.0931497716
C        4.0213719232    0.7775501597   -4.3316397193
C        5.7122604643   -0.6249166451   -4.6347644592
C        2.0764667424    2.4331846187   -3.9889783137
C        0.2001950415    3.7955555657   -3.5223837482
C        9.1023501903   -1.7271327138   -5.1786543629
C        2.6789784954    1.0699384285   -3.7202962897
N        4.5472889579   -0.4793303528   -4.0718028500
N        6.4365185047   -1.8288716629   -4.6011032058
O        2.5482058576    3.3252307825   -4.6681729723
O        8.1335622076   -0.7036993153   -2.9351252056
O        8.0490964494   -3.2419307963   -3.2592614928
O        0.8887345040    2.5380754796   -3.3493724077
S        6.2679439659    0.7550722199   -5.5520629436
S        7.9718896478   -1.8792520428   -3.7875280533
H        4.6312514422    2.6130459465   -5.3905877192
H       -0.7204235430    3.7024646582   -2.9470269091
H       -0.0198840824    3.9662983341   -4.5786300074
H        0.8107956862    4.6183051058   -3.1436913173
H       10.1110068549   -1.7833047848   -4.7652044985
H        8.9110363669   -2.5512302271   -5.8651041733
H        8.9416941745   -0.7606782122   -5.6572320828
H        1.9572501760    0.3153672176   -4.0536282270
H        2.7381429629    0.9382507004   -2.6340334746
H        5.8662524826   -2.5838775029   -4.2157478463
25   
torsion grid (30,)
C        4.4070909120    1.3038802808   -4.5920122429
C        3.8019579538    0.3618574729   -3.8083627126
C        5.8053187110   -0.5763859566   -3.9286033004
C        2.2860957436    0.3849575505   -1.7966820090
C        3.0003688345    1.4504694539    0.1864752809
C        5.6527124173   -3.7365427974   -2.6211959318
C        2.3829818572    0.3929054112   -3.3164081177
N        4.6087264004   -0.6950432885   -3.4287348180
N        6.8057143585   -1.5274280291   -3.7140571158
O        1.6236523113   -0.3990827296   -1.1476252520
O        5.5308374869   -3.2619158881   -5.2270223771
O        7.8156114834   -3.7765949610   -4.2102906587
O        3.0183405445    1.3833461770   -1.2548103660
S        6.0525646711    0.8458417488   -4.9289430350
S        6.4783492224   -3.1871567269   -4.1179923157
H        4.0020519225    2.2368900789   -4.9606836292
H        3.6429967075    2.2914812065    0.4459697831
H        3.3878654566    0.5223377701    0.6127200735
H        1.9825981242    1.6153700635    0.5478301096
H        5.3704716296   -4.7774485267   -2.7897585906
H        6.3563381611   -3.6454341083   -1.7942034540
H        4.7764292785   -3.1033569434   -2.4797616432
H        1.8820274185    1.2912960234   -3.6890597263
H        1.8357094950   -0.4817365533   -3.6745328064
H        7.7383136950   -1.2910512366   -4.0475448057
25   
torsion grid (45,)
C        4.8427939058    1.5441017098   -4.9313244118
C        4.3714842603    0.8069342960   -3.8814827156
C        5.7176443132   -0.7148010034   -4.7722529590
C        2.7993602253    2.5915008245   -2.8883449717
C        1.3571445495    4.0969293164   -1.7710387216
C        4.9895922256   -3.3823412593   -6.7197612419
C        3.3872008576    1.1974554199   -2.8135944414
N        4.8705666816   -0.4861223899   -3.8060035136
N        6.4245855533   -1.9232740780   -4.8432013987
O        2.9849132721    3.4237616423   -3.7553562379
O        7.0161997272   -1.7914786677   -7.3016644530
O        7.4767492103   -3.9229418768   -5.9434321268
O        1.9950414935    2.8022583649   -1.8200189991
S        5.9855916011    0.6223568192   -5.8675837178
S        6.6400469288   -2.7813330416   -6.2963269783
H        4.5660084483    2.5483963296   -5.2147272409
H        0.7576402058    4.0897123712   -0.8611833899
H        0.7244153807    4.2427868333   -2.6494794006
H        2.1080612995    4.8892586813   -1.7324599038
H        5.0747633507   -3.8870742455   -7.6838340016
H        4.6615626440   -4.0794283571   -5.9478315950
H        4.3208560455   -2.5238229539   -6.7957006799
H        2.5518149520    0.4873957120   -2.8101158421
H        3.8535664058    1.0828059491   -1.8286899117
H        6.2703833882   -2.5263017311   -4.0368667399
25   
torsion grid (60,)
C        4.8956166290    1.5103389654   -4.9641022621
C        4.4488510851    0.7764670980   -3.9000434317
C        5.8548391726   -0.7106757495   -4.7562605570
C        2.8121689809    2.5224799816   -2.9422131639
C        1.3165044805    3.9967228910   -1.8535019040
C        4.8687910910   -3.1433540779   -6.6129854412
C        3.4516418411    1.1530597432   -2.8390303918
N        4.9942991617   -0.4956046687   -3.7990098441
N        6.6085865286   -1.8922699662   -4.8283437590
O        2.9675815595    3.3423450614   -3.8268485130
O        7.1315581842   -1.9600871056   -7.3180900448
O        7.2559542049   -4.0814273452   -5.8855642863
O        2.0011444572    2.7251930070   -1.8779939345
S        6.0779149107    0.6147217551   -5.8748454156
S        6.6133454934   -2.8260848545   -6.2637511890
H        4.5841768112    2.4992037145   -5.2652970874
H        0.7196067791    3.9861086915   -0.9420078798
H        0.6770668264    4.1013117081   -2.7329276093
H        2.0382226820    4.8163475868   -1.8330399336
H        4.8360407844   -3.6999567656   -7.5511582361
H        4.4517292640   -3.7343179247   -5.7969364435
H        4.3542462967   -2.1876706027   -6.7189855898
H        2.6438065892    0.4122730695   -2.8171836652
H        3.9245422040    1.0777432949   -1.8534458747
H        6.4715112051   -2.4800603690   -4.0061956870
25   
torsion grid (75,)
C        4.9282948987    1.5531064696   -4.9531866486
C        4.5011201619    0.7889677137   -3.9008422776
C        5.9797848073   -0.6277847433   -4.7540324351
C        2.7820997665    2.4566566337   -2.9484964977
C        1.2305390393    3.8694927348   -1.8576339154
C        4.7855170557   -2.8468074235   -6.5263792088
C        3.4771779119    1.1141920316   -2.8481149728
N        5.0976159373   -0.4600194910   -3.8071488806
N        6.7781926138   -1.7783294289   -4.8665967413
O        2.8984863778    3.2789472767   -3.8369696357
O        7.1943717255   -2.1115044916   -7.3765186015
O        7.0170297416   -4.1096521971   -5.7948466592
O        1.9700228523    2.6286391373   -1.8804476975
S        6.1625627271    0.7199818970   -5.8512283055
S        6.5706155131   -2.7932167636   -6.2477029058
H        4.5803051338    2.5325214049   -5.2450588108
H        0.6369706088    3.8353755317   -0.9446337947
H        0.5852868548    3.9434676819   -2.7358747242
H        1.9162713437    4.7194986373   -1.8412940768
H        4.6363782539   -3.5116907278   -7.3788044089
H        4.3054117388   -3.2458277737   -5.6324464648
H        4.4276664121   -1.8437665091   -6.7581762106
H        2.7002133979    0.3406638674   -2.8441858955
H        3.9406087332    1.0482059565   -1.8576227657
H        6.6994891985   -2.3523691407   -4.0258010729
25   
torsion grid (90,)
C        4.8622068724    1.5455852157   -4.9050567589
C        4.4725400945    0.7615524659   -3.8519069378
C        5.9838477241   -0.6044647132   -4.7315252531
C        2.7078540977    2.3659406947   -2.8750078856
C        1.1139485678    3.7167622485   -1.7670740096
C        4.6998769897   -2.6553153839   -6.5034937708
C        3.4555548050    1.0514439442   -2.7821620295
N        5.1083143553   -0.4685116052   -3.7732723261
N        6.8103795531   -1.7294986016   -4.8806311136
O        2.7846258680    3.1939285388   -3.7626246245
O        7.2157997301   -2.3989822551   -7.3484852694
O        6.7013409642   -4.1589064985   -5.5821190502
O        1.8995835128    2.5046460904   -1.7998396888
S        6.1148086696    0.7591879380   -5.8181800562
S        6.4679438627   -2.8416967411   -6.1774115772
H        4.4814393100    2.5166085064   -5.1837932451
H        0.5332259087    3.6597151142   -0.8470194062
H        0.4557756062    3.7663528208   -2.6373912680
H        1.7672005940    4.5920554873   -1.7583188679
H        4.4620137755   -3.4250682338   -7.2397395060
H        4.1542530411   -2.8228522009   -5.5747008007
H        4.5062533343   -1.6636265748   -6.9107169393
H        2.7102874450    0.2478653409   -2.7599971986
H        3.9398136021    1.0088253664   -1.8002597443
H        6.8045735953   -2.2787987338   -4.0192252682
25   
torsion grid (105,)
C        4.8464771433    1.5586591632   -4.9521435609
C        4.4897447622    0.7763598549   -3.8850698862
C        6.0128977485   -0.5697920963   -4.7772599386
C        2.7153596773    2.3593726106   -2.8911992001
C        1.1248926986    3.6988515843   -1.7645145276
C        4.7224329408   -2.5441955251   -6.5697190234
C        3.4861413959    1.0580700155   -2.8003371870
N        5.1506718636   -0.4392018447   -3.8058525816
N        6.8638420356   -1.6753832414   -4.9390051544
O        2.7616378808    3.1776811633   -3.7899553680
O        7.2891665679   -2.7556554001   -7.2713965907
O        6.4476537426   -4.1570619878   -5.3278224388
O        1.9275975193    2.4979340596   -1.8012236195
S        6.1011212312    0.7899205502   -5.8740959313
S        6.4285255317   -2.9138617593   -6.1045045680
H        4.4429157858    2.5204309651   -5.2309511633
H        0.5640848513    3.6429144469   -0.8321449915
H        0.4484276049    3.7298717355   -2.6215351979
H        1.7653617138    4.5834851448   -1.7779824368
H        4.4213685577   -3.3814137439   -7.2019405684
H        4.1134537639   -2.4998148242   -5.6668939909
H        4.6865705165   -1.6103887174   -7.1291292608
H        2.7551142000    0.2422868976   -2.7588316223
H        3.9877303869    1.0316658719   -1.8266791653
H        6.9378246399   -2.1723312212   -4.0484803646
25   
torsion grid (120,)
C        4.8208139800    1.6107317353   -4.5581467482
C        4.1139330185    0.7072782625   -3.8138327645
C        5.8159062664   -0.6129359619   -4.3564688040
C        2.1370841877    2.2488090336   -3.2089029521
C        0.2050167191    3.4597379191   -2.5795480713
C        4.3239364284   -2.9490355176   -5.5391043409
C        2.8201916619    0.9035479521   -3.0720140577
N        4.6930426978   -0.5476670172   -3.6990078345
N        6.6195805027   -1.7521821955   -4.4155308387
O        2.5507493531    3.2262482857   -3.8029283113
O        6.8353705501   -3.6129736849   -6.1316492104
O        5.9215050235   -4.2015204884   -3.8276046755
O        0.9569845421    2.2266587497   -2.5486359940
S        6.2620902182    0.8685883624   -5.1937323203
S        5.9973489398   -3.2990092314   -4.9683677003
H        4.5890142476    2.6484623485   -4.7435178057
H       -0.6981942001    3.2616456108   -2.0033256887
H       -0.0439251693    3.7270133689   -3.6089340308
H        0.7830027382    4.2682323512   -2.1264156047
H        3.9848198064   -3.8973916400   -5.9606378317
H        3.7124833110   -2.6484765463   -4.6915555617
H        4.3617004880   -2.1772160666   -6.3080733524
H        2.1051919737    0.1307565984   -3.3747963882
H        2.9862137833    0.7241058438   -2.0031778895
H        7.4920752672   -1.6102353195   -4.9221486854
25   
torsion grid (135,)
C        4.8477181961    1.6825687641   -4.5067161950
C        4.1147304621    0.7399751381   -3.8444219114
C        5.8138044592   -0.5606467975   -4.4366478194
C        2.1356942032    2.2579324191   -3.1924468479
C        0.1988340877    3.4454943365   -2.5343048750
C        4.3589154178   -3.0132274544   -5.5863507534
C        2.8041037063    0.9000697180   -3.1246446366
N        4.6758629914   -0.5305762814   -3.8057606477
N        6.6198565692   -1.6914991164   -4.5524452765
O        2.5708266011    3.2669395472   -3.7138226903
O        6.8826417969   -3.7999279348   -5.8922475511
O        5.8096473965   -3.9733668028   -3.5824859072
O        0.9395719077    2.2056877638   -2.5629685259
S        6.3044256174    0.9699616183   -5.1504407137
S        5.9835054047   -3.2863115608   -4.8537853875
H        4.6284623502    2.7313396385   -4.6357983868
H       -0.7202591753    3.2204514616   -1.9941831734
H       -0.0219010308    3.7797481217   -3.5504931866
H        0.7717720684    4.2181936028   -2.0168141300
H        4.0167667691   -4.0101798093   -5.8708016550
H        3.7056585178   -2.5649553958   -4.8413949994
H        4.4710645844   -2.3785158873   -6.4658149299
H        2.0908509538    0.1551886044   -3.4942811310
H        2.9412098756    0.6509710449   -2.0656400254
H        7.4365448923   -1.5753444381   -5.1486184285
25   
torsion grid (150,)
C        4.8981560975    1.7603444312   -4.4398685347
C        4.1086882532    0.7703430995   -3.9337105749
C        5.7854891709   -0.5065130113   -4.6297433718
C        2.1491469674    2.2613088660   -3.1718953196
C        0.2151546855    3.4204848395   -2.4577390816
C        4.3412786981   -3.1306537984   -5.6758866961
C        2.7719756010    0.8829237360   -3.2550282074
N        4.6223932591   -0.5177437975   -4.0480658548
N        6.5679790570   -1.6344536384   -4.8573298482
O        2.6425204504    3.3145581407   -3.5272955658
O        6.8803844433   -3.9035657622   -5.8343550932
O        5.7853222790   -3.7267687461   -3.5320833813
O        0.9184997854    2.1690702883   -2.6175318347
S        6.3679236759    1.0842174182   -5.1005200777
S        5.9613829767   -3.2531429343   -4.8968028909
H        4.7121975158    2.8232027226   -4.4560822864
H       -0.7387148549    3.1594839285   -2.0004119384
H        0.0609572829    3.8962433837   -3.4288294931
H        0.7817452279    4.0948234557   -1.8116957825
H        3.9949701132   -4.1616176479   -5.7715852461
H        3.6889644902   -2.5473171574   -5.0296652706
H        4.4622441898   -2.6720585191   -6.6577575110
H        2.0541144558    0.2184566666   -3.7482943363
H        2.8530352572    0.4945868863   -2.2326422094
H        7.3220294146   -1.5395765355   -5.5325807077
25   
torsion grid (165,)
C        4.9467793974    1.6619705570   -4.4276074247
C        4.0591215838    0.6778292173   -4.1076305708
C        5.7392613452   -0.6243483194   -4.7459973184
C        2.1318920597    2.2037741002   -3.3329943043
C        0.2720825538    3.4044728631   -2.4998464796
C        4.3714871443   -3.4711754283   -5.6107241583
C        2.6580216226    0.8044169365   -3.5776807877
N        4.5171448967   -0.6220327881   -4.3021098899
N        6.4856328810   -1.7686185614   -4.9998149980
O        2.6903278701    3.2542940482   -3.5849885344
O        6.9427817762   -4.1519201475   -5.5071180974
O        5.7206504578   -3.5925543768   -3.3322611240
O        0.8987471665    2.1338026963   -2.7803919158
S        6.4543072359    0.9652302025   -4.9719636923
S        5.9522235383   -3.3803728470   -4.7539580646
H        4.8076602221    2.7309859629   -4.3782998511
H       -0.6966053138    3.1593409554   -2.0653969161
H        0.1485611626    3.9791795605   -3.4205528070
H        0.8773100601    3.9786770379   -1.7948149077
H        4.0184445519   -4.4948064110   -5.4710960627
H        3.6975262335   -2.7492540122   -5.1524014793
H        4.5417679092   -3.2612873525   -6.6671053312
H        1.9613979040    0.3069380755   -4.2632152326
H        2.5754216003    0.2435041163   -2.6402581014
H        7.2586205754   -1.7234078989   -5.6566687155
25   
torsion grid (180,)
C        4.9898085109    1.6590179175   -4.2429505078
C        4.0187748484    0.7031222793   -4.1700549129
C        5.6684612444   -0.5942399512   -4.8928705062
C        2.1186904271    2.2237762844   -3.3197728910
C        0.2540370182    3.4121736245   -2.4802176564
C        4.3394542538   -3.5985026726   -5.4013626721
C        2.5843287958    0.8458484535   -3.7433189275
N        4.4127649300   -0.5738519545   -4.5515286252
N        6.3400678881   -1.7344809850   -5.3234973306
O        2.7617487963    3.2557563235   -3.3361738179
O        6.9446028708   -4.1484144543   -5.4879428955
O        5.9304198868   -3.3384332617   -3.2893001843
O        0.8315454655    2.1591212964   -2.9073722369
S        6.4940203716    0.9511953857   -4.7741622410
S        5.9896662604   -3.3211416926   -4.7479411662
H        4.9075563698    2.7137103325   -4.0299243953
H       -0.7684328915    3.1745621029   -2.1881646743
H        0.2640017373    4.1343118234   -3.2997605890
H        0.8127210975    3.8189589782   -1.6343673455
H        4.0601802452   -4.6026750843   -5.0762602554
H        3.6791374842   -2.8389921588   -4.9858512179
H        4.3949163436   -3.5395568505   -6.4881829543
H        1.9272805527    0.5107897051   -4.5546395839
H        2.3835336461    0.1552194502   -2.9166282183
H        7.3123616221   -1.6488264936   -5.6059900014
