35
1 1 C12H20NO2
C                     4.085289241651    -2.864445427873    -9.196417849062
C                     2.840117389338    -2.469719583767    -8.425240375053
O                     3.275441079326    -1.662712986644    -7.290624648935
C                     2.492434504952    -1.590636182411    -6.185919352291
C                     3.099142934578    -1.808280006275    -4.949214187180
C                     2.377462648939    -1.693294116482    -3.753473037413
C                     1.015101640475    -1.369536773152    -3.782878563034
C                     0.393496036268    -1.145870896755    -5.024083792936
C                     1.110396369999    -1.248067393590    -6.222199588393
O                     0.582420952525    -1.019064045343    -7.450108320109
C                    -0.814404859660    -0.731391417719    -7.558037488919
C                     0.249414538779    -1.145094546161    -2.497712052775
C                     0.174886061820     0.349316406810    -2.133839404386
H                    -0.331815897316     0.891530326698    -2.936258283806
C                    -0.459934176858     0.651666960312    -0.783980064646
N                     1.604987568908     0.899547768907    -2.159390514333
H                     3.801058165643    -3.449158035226   -10.077177720865
H                     4.626905895097    -1.976516162677    -9.534616237385
H                     4.756015651645    -3.468851052907    -8.579389384307
H                     2.307787356723    -3.349268761613    -8.046358451184
H                     2.154484962213    -1.882165728718    -9.038001962248
H                     4.149595327259    -2.082704952310    -4.945367201152
H                     2.868684243166    -1.930200869248    -2.810879745187
H                    -0.662066647196    -0.894368245870    -5.048913396214
H                    -1.009978062053    -0.620059253145    -8.623985820195
H                    -1.065242414169     0.203817254157    -7.043851238906
H                    -1.418283768157    -1.553751514807    -7.158598977787
H                     0.708877837880    -1.697577096905    -1.669393716635
H                    -0.782404143162    -1.500689280735    -2.577560157729
H                    -0.485115894653     1.724540496158    -0.568565939543
H                    -1.491871368036     0.292203289440    -0.788108504156
H                     0.065141794010     0.138005437130     0.028735698400
H                     1.631612448208     1.924446797347    -2.196777730950
H                     2.096074699206     0.506951963617    -2.986944655079
H                     2.128764250971     0.602031831319    -1.327760677168
