
  -OEChem-12122420533D

 35 35  0     1  0  0  0  0  0999 V2000
    3.1248   -4.1541   -7.8428 C   0  0  0  0  0  0  0  0  0  0  0  0
    3.6776   -2.7352   -7.8230 C   0  0  0  0  0  0  0  0  0  0  0  0
    2.6627   -1.7556   -7.5033 O   0  0  0  0  0  0  0  0  0  0  0  0
    2.2331   -1.6111   -6.2249 C   0  0  0  0  0  0  0  0  0  0  0  0
    2.8008   -2.2460   -5.1110 C   0  0  0  0  0  0  0  0  0  0  0  0
    2.2711   -2.0810   -3.8280 C   0  0  0  0  0  0  0  0  0  0  0  0
    1.1503   -1.2727   -3.6195 C   0  0  0  0  0  0  0  0  0  0  0  0
    0.5908   -0.6189   -4.7329 C   0  0  0  0  0  0  0  0  0  0  0  0
    1.1084   -0.7660   -6.0253 C   0  0  0  0  0  0  0  0  0  0  0  0
    0.4203   -0.1382   -7.0150 O   0  0  0  0  0  0  0  0  0  0  0  0
    1.1195    0.4612   -8.1275 C   0  0  0  0  0  0  0  0  0  0  0  0
    0.5822   -1.0365   -2.2379 C   0  0  0  0  0  0  0  0  0  0  0  0
    1.2275    0.1685   -1.5188 C   0  0  1  0  0  0  0  0  0  0  0  0
    0.6578    0.4209   -0.6207 H   0  0  0  0  0  0  0  0  0  0  0  0
    2.7051    0.0064   -1.1832 C   0  0  0  0  0  0  0  0  0  0  0  0
    1.0826    1.3842   -2.4442 N   0  3  0  0  0  0  0  0  0  0  0  0
    3.9116   -4.8468   -8.1583 H   0  0  0  0  0  0  0  0  0  0  0  0
    2.7650   -4.4735   -6.8613 H   0  0  0  0  0  0  0  0  0  0  0  0
    2.2968   -4.2283   -8.5530 H   0  0  0  0  0  0  0  0  0  0  0  0
    4.0153   -2.4395   -8.8177 H   0  0  0  0  0  0  0  0  0  0  0  0
    4.5276   -2.6260   -7.1408 H   0  0  0  0  0  0  0  0  0  0  0  0
    3.6502   -2.9058   -5.2399 H   0  0  0  0  0  0  0  0  0  0  0  0
    2.7256   -2.6150   -2.9978 H   0  0  0  0  0  0  0  0  0  0  0  0
   -0.3281   -0.0397   -4.6480 H   0  0  0  0  0  0  0  0  0  0  0  0
    0.4302    1.2063   -8.5271 H   0  0  0  0  0  0  0  0  0  0  0  0
    1.3554   -0.2823   -8.8881 H   0  0  0  0  0  0  0  0  0  0  0  0
    2.0394    0.9495   -7.7911 H   0  0  0  0  0  0  0  0  0  0  0  0
    0.7399   -1.9056   -1.5931 H   0  0  0  0  0  0  0  0  0  0  0  0
   -0.5020   -0.8818   -2.2899 H   0  0  0  0  0  0  0  0  0  0  0  0
    3.1006    0.8864   -0.6651 H   0  0  0  0  0  0  0  0  0  0  0  0
    2.8245   -0.8480   -0.5127 H   0  0  0  0  0  0  0  0  0  0  0  0
    3.3029   -0.1831   -2.0786 H   0  0  0  0  0  0  0  0  0  0  0  0
    1.6380    2.1851   -2.1228 H   0  0  0  0  0  0  0  0  0  0  0  0
    0.1051    1.6860   -2.5278 H   0  0  0  0  0  0  0  0  0  0  0  0
    1.3940    1.1101   -3.3953 H   0  0  0  0  0  0  0  0  0  0  0  0
  1  2  1  0  0  0  0
  1 17  1  0  0  0  0
  1 18  1  0  0  0  0
  1 19  1  0  0  0  0
  2  3  1  0  0  0  0
  2 20  1  0  0  0  0
  2 21  1  0  0  0  0
  3  4  1  0  0  0  0
  4  5  2  0  0  0  0
  4  9  1  0  0  0  0
  5  6  1  0  0  0  0
  5 22  1  0  0  0  0
  6  7  2  0  0  0  0
  6 23  1  0  0  0  0
  7  8  1  0  0  0  0
  7 12  1  0  0  0  0
  8  9  2  0  0  0  0
  8 24  1  0  0  0  0
  9 10  1  0  0  0  0
 10 11  1  0  0  0  0
 11 25  1  0  0  0  0
 11 26  1  0  0  0  0
 11 27  1  0  0  0  0
 12 13  1  0  0  0  0
 12 28  1  0  0  0  0
 12 29  1  0  0  0  0
 13 14  1  0  0  0  0
 13 15  1  0  0  0  0
 13 16  1  0  0  0  0
 15 30  1  0  0  0  0
 15 31  1  0  0  0  0
 15 32  1  0  0  0  0
 16 33  1  0  0  0  0
 16 34  1  0  0  0  0
 16 35  1  0  0  0  0
M  CHG  1  16   1
M  END
$$$$
