35
1 1 C12H20NO2
C                     3.124761747457    -4.154125692737    -7.842804086973
C                     3.677646171249    -2.735181601380    -7.822976187313
O                     2.662679132290    -1.755589206979    -7.503317183893
C                     2.233143259835    -1.611120605777    -6.224942276834
C                     2.800794066769    -2.245953597626    -5.111030736086
C                     2.271080693749    -2.080975796981    -3.827979558809
C                     1.150333612218    -1.272671604420    -3.619516382747
C                     0.590829858866    -0.618895073865    -4.732895534179
C                     1.108406891233    -0.766013323571    -6.025340141414
O                     0.420281330348    -0.138198946653    -7.015038820394
C                     1.119529889278     0.461207181432    -8.127458377747
C                     0.582170635829    -1.036453459374    -2.237896059661
C                     1.227511272004     0.168549662149    -1.518787548807
H                     0.657811072861     0.420867801575    -0.620724418315
C                     2.705081768799     0.006400493615    -1.183150563396
N                     1.082621847917     1.384194293957    -2.444153429313
H                     3.911581578103    -4.846809713117    -8.158292819424
H                     2.764972357428    -4.473548847165    -6.861279745952
H                     2.296845596580    -4.228337377758    -8.552971953057
H                     4.015260591352    -2.439506962356    -8.817736049430
H                     4.527585121853    -2.626020857280    -7.140804875485
H                     3.650176608702    -2.905812385205    -5.239909591450
H                     2.725644907276    -2.614986829799    -2.997751173402
H                    -0.328143862566    -0.039689036940    -4.647995141556
H                     0.430155845892     1.206322571980    -8.527063897207
H                     1.355415748078    -0.282266092856    -8.888142537549
H                     2.039394316500     0.949456165012    -7.791146638475
H                     0.739855813583    -1.905557557515    -1.593073128134
H                    -0.502002743795    -0.881838186788    -2.289876533803
H                     3.100644718335     0.886446240772    -0.665120534170
H                     2.824462962170    -0.848006533016    -0.512740638417
H                     3.302878166268    -0.183134881472    -2.078579232770
H                     1.638015989883     2.185053227753    -2.122762735806
H                     0.105065113577     1.686026460172    -2.527781372998
H                     1.394005239443     1.110055447581    -3.395316132620
