
  -OEChem-12102412493D

 35 35  0     1  0  0  0  0  0999 V2000
    5.3443   -2.6876   -7.3429 C   0  0  0  0  0  0  0  0  0  0  0  0
    4.8928   -1.2405   -7.4908 C   0  0  0  0  0  0  0  0  0  0  0  0
    3.4761   -1.0817   -7.2481 O   0  0  0  0  0  0  0  0  0  0  0  0
    3.0025   -1.0395   -5.9808 C   0  0  0  0  0  0  0  0  0  0  0  0
    3.7875   -1.0934   -4.8191 C   0  0  0  0  0  0  0  0  0  0  0  0
    3.2009   -1.0707   -3.5501 C   0  0  0  0  0  0  0  0  0  0  0  0
    1.8136   -0.9769   -3.4032 C   0  0  0  0  0  0  0  0  0  0  0  0
    1.0277   -0.8956   -4.5677 C   0  0  0  0  0  0  0  0  0  0  0  0
    1.5933   -0.9254   -5.8445 C   0  0  0  0  0  0  0  0  0  0  0  0
    0.7435   -0.9104   -6.9109 O   0  0  0  0  0  0  0  0  0  0  0  0
    0.8961    0.1623   -7.8699 C   0  0  0  0  0  0  0  0  0  0  0  0
    1.1575   -1.0610   -2.0433 C   0  0  0  0  0  0  0  0  0  0  0  0
    1.0017   -2.5182   -1.5722 C   0  0  1  0  0  0  0  0  0  0  0  0
    1.9889   -2.9822   -1.5028 H   0  0  0  0  0  0  0  0  0  0  0  0
    0.2211   -2.6953   -0.2776 C   0  0  0  0  0  0  0  0  0  0  0  0
    0.3050   -3.2959   -2.6949 N   0  3  0  0  0  0  0  0  0  0  0  0
    6.4031   -2.7682   -7.6090 H   0  0  0  0  0  0  0  0  0  0  0  0
    5.2233   -3.0572   -6.3208 H   0  0  0  0  0  0  0  0  0  0  0  0
    4.7718   -3.3335   -8.0141 H   0  0  0  0  0  0  0  0  0  0  0  0
    5.0185   -0.9036   -8.5211 H   0  0  0  0  0  0  0  0  0  0  0  0
    5.4577   -0.5576   -6.8479 H   0  0  0  0  0  0  0  0  0  0  0  0
    4.8659   -1.1674   -4.8922 H   0  0  0  0  0  0  0  0  0  0  0  0
    3.8425   -1.1166   -2.6730 H   0  0  0  0  0  0  0  0  0  0  0  0
   -0.0515   -0.7595   -4.5142 H   0  0  0  0  0  0  0  0  0  0  0  0
    0.0404    0.0748   -8.5396 H   0  0  0  0  0  0  0  0  0  0  0  0
    1.8260    0.0596   -8.4299 H   0  0  0  0  0  0  0  0  0  0  0  0
    0.8663    1.1299   -7.3575 H   0  0  0  0  0  0  0  0  0  0  0  0
    0.1742   -0.5754   -2.0510 H   0  0  0  0  0  0  0  0  0  0  0  0
    1.7538   -0.5490   -1.2821 H   0  0  0  0  0  0  0  0  0  0  0  0
    0.1334   -3.7469    0.0135 H   0  0  0  0  0  0  0  0  0  0  0  0
    0.7454   -2.1738    0.5268 H   0  0  0  0  0  0  0  0  0  0  0  0
   -0.7822   -2.2622   -0.3530 H   0  0  0  0  0  0  0  0  0  0  0  0
    0.3711   -4.3116   -2.5666 H   0  0  0  0  0  0  0  0  0  0  0  0
    0.7338   -3.0327   -3.6021 H   0  0  0  0  0  0  0  0  0  0  0  0
   -0.6908   -3.0509   -2.7504 H   0  0  0  0  0  0  0  0  0  0  0  0
  1  2  1  0  0  0  0
  1 17  1  0  0  0  0
  1 18  1  0  0  0  0
  1 19  1  0  0  0  0
  2  3  1  0  0  0  0
  2 20  1  0  0  0  0
  2 21  1  0  0  0  0
  3  4  1  0  0  0  0
  4  5  2  0  0  0  0
  4  9  1  0  0  0  0
  5  6  1  0  0  0  0
  5 22  1  0  0  0  0
  6  7  2  0  0  0  0
  6 23  1  0  0  0  0
  7  8  1  0  0  0  0
  7 12  1  0  0  0  0
  8  9  2  0  0  0  0
  8 24  1  0  0  0  0
  9 10  1  0  0  0  0
 10 11  1  0  0  0  0
 11 25  1  0  0  0  0
 11 26  1  0  0  0  0
 11 27  1  0  0  0  0
 12 13  1  0  0  0  0
 12 28  1  0  0  0  0
 12 29  1  0  0  0  0
 13 14  1  0  0  0  0
 13 15  1  0  0  0  0
 13 16  1  0  0  0  0
 15 30  1  0  0  0  0
 15 31  1  0  0  0  0
 15 32  1  0  0  0  0
 16 33  1  0  0  0  0
 16 34  1  0  0  0  0
 16 35  1  0  0  0  0
M  CHG  1  16   1
M  END
$$$$
