
  -OEChem-12102412493D

 35 35  0     1  0  0  0  0  0999 V2000
    4.8132   -1.3129   -9.1575 C   0  0  0  0  0  0  0  0  0  0  0  0
    4.5485   -1.5196   -7.6781 C   0  0  0  0  0  0  0  0  0  0  0  0
    3.1802   -1.1347   -7.4247 O   0  0  0  0  0  0  0  0  0  0  0  0
    2.6843   -1.2578   -6.1706 C   0  0  0  0  0  0  0  0  0  0  0  0
    3.4223   -1.6893   -5.0592 C   0  0  0  0  0  0  0  0  0  0  0  0
    2.8501   -1.7350   -3.7834 C   0  0  0  0  0  0  0  0  0  0  0  0
    1.5166   -1.3677   -3.5855 C   0  0  0  0  0  0  0  0  0  0  0  0
    0.7642   -0.9756   -4.7094 C   0  0  0  0  0  0  0  0  0  0  0  0
    1.3182   -0.9129   -5.9909 C   0  0  0  0  0  0  0  0  0  0  0  0
    0.5090   -0.4603   -6.9871 O   0  0  0  0  0  0  0  0  0  0  0  0
    0.4611   -1.1897   -8.2364 C   0  0  0  0  0  0  0  0  0  0  0  0
    0.8958   -1.3182   -2.2074 C   0  0  0  0  0  0  0  0  0  0  0  0
    1.0682    0.0564   -1.5230 C   0  0  1  0  0  0  0  0  0  0  0  0
    0.4393    0.1142   -0.6309 H   0  0  0  0  0  0  0  0  0  0  0  0
    2.5055    0.4339   -1.1853 C   0  0  0  0  0  0  0  0  0  0  0  0
    0.5118    1.1208   -2.4783 N   0  3  0  0  0  0  0  0  0  0  0  0
    5.8478   -1.5850   -9.3866 H   0  0  0  0  0  0  0  0  0  0  0  0
    4.1511   -1.9384   -9.7624 H   0  0  0  0  0  0  0  0  0  0  0  0
    4.6611   -0.2669   -9.4370 H   0  0  0  0  0  0  0  0  0  0  0  0
    5.2145   -0.8991   -7.0660 H   0  0  0  0  0  0  0  0  0  0  0  0
    4.6850   -2.5698   -7.3932 H   0  0  0  0  0  0  0  0  0  0  0  0
    4.4598   -1.9783   -5.1774 H   0  0  0  0  0  0  0  0  0  0  0  0
    3.4557   -2.0718   -2.9462 H   0  0  0  0  0  0  0  0  0  0  0  0
   -0.3029   -0.7697   -4.6340 H   0  0  0  0  0  0  0  0  0  0  0  0
   -0.4837   -0.9026   -8.6993 H   0  0  0  0  0  0  0  0  0  0  0  0
    0.4672   -2.2679   -8.0493 H   0  0  0  0  0  0  0  0  0  0  0  0
    1.2983   -0.9176   -8.8788 H   0  0  0  0  0  0  0  0  0  0  0  0
    1.3495   -2.0575   -1.5414 H   0  0  0  0  0  0  0  0  0  0  0  0
   -0.1723   -1.5600   -2.2577 H   0  0  0  0  0  0  0  0  0  0  0  0
    2.5617    1.4104   -0.6928 H   0  0  0  0  0  0  0  0  0  0  0  0
    2.9124   -0.3056   -0.4916 H   0  0  0  0  0  0  0  0  0  0  0  0
    3.1391    0.4434   -2.0762 H   0  0  0  0  0  0  0  0  0  0  0  0
    0.7402    2.0733   -2.1722 H   0  0  0  0  0  0  0  0  0  0  0  0
   -0.5079    1.0528   -2.5754 H   0  0  0  0  0  0  0  0  0  0  0  0
    0.9125    0.9603   -3.4213 H   0  0  0  0  0  0  0  0  0  0  0  0
  1  2  1  0  0  0  0
  1 17  1  0  0  0  0
  1 18  1  0  0  0  0
  1 19  1  0  0  0  0
  2  3  1  0  0  0  0
  2 20  1  0  0  0  0
  2 21  1  0  0  0  0
  3  4  1  0  0  0  0
  4  5  2  0  0  0  0
  4  9  1  0  0  0  0
  5  6  1  0  0  0  0
  5 22  1  0  0  0  0
  6  7  2  0  0  0  0
  6 23  1  0  0  0  0
  7  8  1  0  0  0  0
  7 12  1  0  0  0  0
  8  9  2  0  0  0  0
  8 24  1  0  0  0  0
  9 10  1  0  0  0  0
 10 11  1  0  0  0  0
 11 25  1  0  0  0  0
 11 26  1  0  0  0  0
 11 27  1  0  0  0  0
 12 13  1  0  0  0  0
 12 28  1  0  0  0  0
 12 29  1  0  0  0  0
 13 14  1  0  0  0  0
 13 15  1  0  0  0  0
 13 16  1  0  0  0  0
 15 30  1  0  0  0  0
 15 31  1  0  0  0  0
 15 32  1  0  0  0  0
 16 33  1  0  0  0  0
 16 34  1  0  0  0  0
 16 35  1  0  0  0  0
M  CHG  1  16   1
M  END
$$$$
