35   
torsion grid (-165,)
C        3.2089536745   -0.7752179176    3.7700020791
C        3.3167894700   -1.7066910201    4.8242540897
C        1.9645470484   -0.4235216623    3.2727823767
C       -0.5177575796   -0.8016148121    3.3146852297
C       -3.7475385641   -3.0977446464    5.1527677548
C        2.1834549677   -2.2687748167    5.4059223378
C       -4.7219394021   -3.8550679262    5.7846743577
C       -1.5806823119   -1.4982712770    3.8352482587
C       -2.0742974556   -3.9457641414    6.7202822488
C        0.7966954788   -0.9890331945    3.8343292015
C       -2.4093612673   -3.1279953651    5.6040784988
C        0.9364412425   -1.8699363024    4.9288203680
C       -4.3945421770   -4.6627663914    6.8870466777
C       -3.0377017054   -4.7028301555    7.3601992397
C       -1.3987958607   -2.3536111103    4.9498380388
C       -6.6375210241   -5.4537721523    7.1609849111
C       -1.5068743711   -5.6009294745    8.9547675128
O       -0.1769716654   -2.4282459770    5.5047361348
O       -5.2545735066   -5.4230807894    7.5603791127
O       -2.8322301388   -5.5070897592    8.4210294324
H        4.1083961712   -0.3493622585    3.3367656686
H        4.2989016274   -1.9987258189    5.1837589741
H        1.8729634362    0.2655909197    2.4379490027
H       -0.6675263282   -0.1335246418    2.4705046793
H       -4.0426562661   -2.4854185598    4.3090659006
H        2.2524011860   -2.9836402218    6.2195855367
H       -5.7418960430   -3.8175216897    5.4221629766
H       -2.5656214590   -1.3979669348    3.4002799890
H       -1.0499271793   -3.9683832538    7.0655549119
H       -7.1201682134   -6.1388897327    7.8555026451
H       -6.7339479680   -5.8310636705    6.1385404747
H       -7.0849270814   -4.4591574793    7.2480982987
H       -1.5784336311   -6.2921425759    9.7932412172
H       -1.1593041645   -4.6246096845    9.3110012120
H       -0.8123154565   -6.0002525259    8.2069833085
35   
torsion grid (-150,)
C        3.1968238967   -0.8689935169    3.7103241167
C        3.2855517994   -1.8628961379    4.7063220935
C        1.9577860815   -0.3951000392    3.3068115635
C       -0.5331067295   -0.6817076291    3.4092682738
C       -3.7432027146   -3.0905641503    5.1455782056
C        2.1448826412   -2.3470927846    5.3453108206
C       -4.7077124773   -3.8819699769    5.7490638378
C       -1.5920737747   -1.4139415996    3.8900184218
C       -2.0858877359   -3.8756389645    6.7650071677
C        0.7842068473   -0.8888359454    3.9204287635
C       -2.4180942471   -3.0731076608    5.6366955499
C        0.9167162408   -1.7900142809    4.9995534686
C       -4.3838120111   -4.6747326106    6.8639030710
C       -3.0410200989   -4.6642241196    7.3781832169
C       -1.4169857276   -2.2703274624    5.0069920686
C       -6.6041629876   -5.5464361923    7.0741390815
C       -1.5295946950   -5.4998273212    9.0240767136
O       -0.2171777299   -2.2671898095    5.6139659260
O       -5.2352198511   -5.4638631993    7.5135048961
O       -2.8398726613   -5.4576260323    8.4476554653
H        4.1010540695   -0.5048223054    3.2330128257
H        4.2557375591   -2.2735229463    4.9694375521
H        1.8735468953    0.3171256550    2.4907870125
H       -0.6792742847   -0.0011006085    2.5744840884
H       -4.0337051259   -2.4890068906    4.2925477181
H        2.2017746212   -3.1078144568    6.1173353431
H       -5.7171978567   -3.8823088211    5.3565227514
H       -2.5652460558   -1.3382835653    3.4243100578
H       -1.0717846296   -3.8593608321    7.1399194903
H       -7.0811417207   -6.2471264789    7.7568970738
H       -6.6565810368   -5.9295808508    6.0507212047
H       -7.0898481148   -4.5686839917    7.1448626939
H       -1.6026052724   -6.1891882400    9.8639243807
H       -1.2297565654   -4.5096032406    9.3850695215
H       -0.7973583756   -5.8769419324    8.3011180276
35   
torsion grid (-135,)
C        3.1668116689   -0.9696211446    3.6473998600
C        3.2221325898   -2.0269224511    4.5758375277
C        1.9511269146   -0.3713865705    3.3443701639
C       -0.5408299249   -0.5679306401    3.5095826847
C       -3.7238564015   -3.0979679253    5.1380944526
C        2.0820796648   -2.4372005938    5.2711673736
C       -4.6742947163   -3.9248913560    5.7138728523
C       -1.5959293689   -1.3339786354    3.9479466340
C       -2.0857374316   -3.8155678372    6.8100088677
C        0.7805876650   -0.7963787546    4.0111958983
C       -2.4146422562   -3.0295499330    5.6687348411
C        0.9047241408   -1.7255322914    5.0685002103
C       -4.3532657720   -4.7015203855    6.8418507844
C       -3.0280150994   -4.6376361305    7.3977681473
C       -1.4267707747   -2.1971809711    5.0636426420
C       -6.5449184324   -5.6561057052    6.9903223894
C       -1.5394299233   -5.4043790952    9.0968300875
O       -0.2497382427   -2.1223904466    5.7112421265
O       -5.1926827338   -5.5203902438    7.4680433907
O       -2.8305546901   -5.4185343062    8.4766956215
H        4.0685317895   -0.6643177584    3.1260621650
H        4.1587249437   -2.5524628232    4.7363294930
H        1.8778441111    0.3677967586    2.5515046210
H       -0.6828475072    0.1281124534    2.6868215218
H       -4.0094652951   -2.5089597666    4.2746601597
H        2.1158997165   -3.2468099026    5.9934419042
H       -5.6707601419   -3.9659129331    5.2913375725
H       -2.5561376063   -1.2763657636    3.4532020468
H       -1.0846370472   -3.7566896641    7.2145731108
H       -7.0140300824   -6.3721747468    7.6624252650
H       -6.5534201065   -6.0441643499    5.9675332902
H       -7.0684755902   -4.6970554083    7.0434485447
H       -1.6129339441   -6.0910513476    9.9387943931
H       -1.2918691637   -4.4006533516    9.4599087477
H       -0.7690668121   -5.7561157696    8.4012544579
35   
torsion grid (-120,)
C        3.1274585564   -1.0701958995    3.5842351758
C        3.1333255537   -2.1875027603    4.4377184231
C        1.9526455967   -0.3524187096    3.3878402490
C       -0.5306143343   -0.4628038625    3.6162172246
C       -3.6855928395   -3.1088340487    5.1325793432
C        2.0022030420   -2.5314390370    5.1881603991
C       -4.6209172120   -3.9681679062    5.6827811485
C       -1.5828841877   -1.2593231722    4.0101292336
C       -2.0724271545   -3.7606227208    6.8588120345
C        0.7948208178   -0.7142892787    4.1097023150
C       -2.3954752759   -2.9923930890    5.7032799774
C        0.9072979370   -1.6781874528    5.1391780944
C       -4.3060539158   -4.7279059832    6.8251898503
C       -3.0017112635   -4.6129326112    7.4226532176
C       -1.4215180434   -2.1327961160    5.1226102917
C       -6.4661525421   -5.7602524620    6.9129378537
C       -1.5432614309   -5.3109139446    9.1761989220
O       -0.2673234390   -1.9939585135    5.8020745453
O       -5.1337081630   -5.5733492374    7.4291273308
O       -2.8111740804   -5.3796742459    8.5124601968
H        4.0197021902   -0.8186931828    3.0196197857
H        4.0157948156   -2.8179382662    4.4920242689
H        1.8928248425    0.4159017212    2.6218678272
H       -0.6664057925    0.2498793248    2.8066300899
H       -3.9633971554   -2.5330909266    4.2575964767
H        2.0018756437   -3.3901831317    5.8526078184
H       -5.6018576920   -4.0484888315    5.2306231695
H       -2.5287324039   -1.2134532842    3.4868201974
H       -1.0869831773   -3.6598809266    7.2927058208
H       -6.9282461107   -6.4896251807    7.5754447292
H       -6.4303400193   -6.1531799731    5.8927025102
H       -7.0247610488   -4.8203643038    6.9456160381
H       -1.6194484541   -5.9932937251   10.0213567835
H       -1.3470190132   -4.2955082761    9.5378735501
H       -0.7368291122   -5.6381804711    8.5102714766
35   
torsion grid (-105,)
C        3.0695482295   -1.1991579443    3.5282439060
C        2.9962645621   -2.3634225508    4.3087061448
C        1.9648529299   -0.3539918047    3.4383151860
C       -0.5081867890   -0.3496105082    3.7308583944
C       -3.6423697093   -3.1012777510    5.1202050619
C        1.8765717198   -2.6279953200    5.1144498203
C       -4.5644096332   -3.9914064860    5.6401640945
C       -1.5651409926   -1.1643899097    4.0778014162
C       -2.0678364207   -3.6904356731    6.9062795094
C        0.8200751587   -0.6381183242    4.2124748931
C       -2.3764064514   -2.9381476744    5.7356012037
C        0.9082356670   -1.6402058485    5.2103774780
C       -4.2629853729   -4.7356094521    6.7978756337
C       -2.9854485301   -4.5721055321    7.4422109276
C       -1.4147056471   -2.0523501089    5.1843494291
C       -6.3876711218   -5.8439947584    6.8146161337
C       -1.5704243989   -5.2063677626    9.2541718946
O       -0.2854426011   -1.8556236457    5.8966064078
O       -5.0808252765   -5.6066592426    7.3754473573
O       -2.8090475070   -5.3256964400    8.5429658812
H        3.9497646352   -1.0094307947    2.9219852463
H        3.7981201045   -3.0940331762    4.2610512509
H        1.9359863054    0.4424326114    2.6994973036
H       -0.6308079090    0.3838152440    2.9376906237
H       -3.9062679617   -2.5380704743    4.2326942844
H        1.8168111395   -3.5248357126    5.7240306408
H       -5.5252627241   -4.1092850465    5.1543579834
H       -2.4958528699   -1.1184032738    3.5275711039
H       -1.1028034122   -3.5491123350    7.3735964582
H       -6.8453352311   -6.5867356703    7.4651427957
H       -6.3019182218   -6.2397381166    5.7985699150
H       -6.9800617835   -4.9246249488    6.8232422426
H       -1.6540893535   -5.8860169135   10.1007619289
H       -1.4255849224   -4.1822022404    9.6150629736
H       -0.7279356670   -5.5077227901    8.6215985815
35   
torsion grid (-90,)
C        3.0060367531   -1.2967755365    3.4843336266
C        2.8477396282   -2.4986112886    4.1860806087
C        1.9787367705   -0.3497959316    3.4972347003
C       -0.4723465011   -0.2643074351    3.8364256172
C       -3.5931396624   -3.1074908089    5.1134104952
C        1.7425628839   -2.7029404222    5.0355048648
C       -4.5001627432   -4.0245029166    5.6096067511
C       -1.5368757828   -1.0930557741    4.1355889491
C       -2.0517707825   -3.6358585895    6.9519374428
C        0.8567148696   -0.5795271775    4.3185772146
C       -2.3513999774   -2.9012215623    5.7672150265
C        0.9127134875   -1.6211114017    5.2842843325
C       -4.2078215748   -4.7525158959    6.7813215769
C       -2.9562184754   -4.5440494419    7.4642349387
C       -1.4052482401   -1.9906485795    5.2405407797
C       -6.2956567769   -5.9298012312    6.7426693566
C       -1.5814159267   -5.1186502520    9.3259584299
O       -0.2985854095   -1.7383935548    5.9749654614
O       -5.0132480459   -5.6461487642    7.3388668454
O       -2.7911327201   -5.2852424172    8.5745689388
H        3.8707503168   -1.1527074479    2.8441017055
H        3.5604998209   -3.3051218240    4.0428424075
H        1.9771069421    0.4736472906    2.7878617853
H       -0.5777331131    0.4824481842    3.0532068472
H       -3.8447656447   -2.5562005770    4.2147343342
H        1.6194249136   -3.6361457672    5.5784097451
H       -5.4417633745   -4.1773901088    5.0965800443
H       -2.4475570449   -1.0476649385    3.5522248808
H       -1.1068209155   -3.4559484349    7.4467203485
H       -6.7465545563   -6.6835792250    7.3850902633
H       -6.1675324528   -6.3281408766    5.7322189899
H       -6.9175002130   -5.0302842422    6.7288905886
H       -1.6703957368   -5.7950702165   10.1745347340
H       -1.4839505549   -4.0876543431    9.6829764049
H       -0.7085928124   -5.3950859323    8.7239877880
35   
torsion grid (90,)
C        2.7990141228   -0.2565139846    4.3330087027
C        2.5011399923   -0.7570746805    5.6068331333
C        2.0429656718   -0.6724561778    3.2340707690
C       -0.2096936172   -1.5839651777    2.7599127045
C       -3.6060598244   -3.0426478137    5.1663115129
C        1.5613633962   -1.7925071511    5.7782608095
C       -4.5905235528   -3.5705880178    5.9799003622
C       -1.3612636188   -1.9753853693    3.4158287593
C       -1.9095237693   -4.3506644964    6.3688371470
C        1.0758484830   -1.6805576382    3.4204354937
C       -2.2493501212   -3.4140482910    5.3488807697
C        1.0699905013   -2.4113870248    4.6396483814
C       -4.2585805330   -4.4976046196    6.9892743368
C       -2.8864096266   -4.8949301251    7.1780055548
C       -1.2348785047   -2.8467061094    4.5422141892
C       -6.5316110097   -4.7444057379    7.7096627807
C       -1.3550830008   -6.2560172697    8.3981452408
O        0.0191109522   -3.3347483716    4.6727420974
O       -5.1290289586   -5.0645706026    7.8132997809
O       -2.6905788630   -5.7906382745    8.1622921215
H        3.5352688920    0.5330390170    4.2193525738
H        2.9652327846   -0.3141349301    6.4828620718
H        2.0985552365   -0.1364844622    2.2901872545
H       -0.2850041554   -0.9882840976    1.8534497383
H       -3.8884366958   -2.3368238602    4.3936966030
H        1.3294773307   -2.1793318967    6.7668849460
H       -5.6217668635   -3.2730625818    5.8342995919
H       -2.3301299712   -1.6376176824    3.0709705916
H       -0.8722513724   -4.6346236505    6.4852105387
H       -7.0151946645   -5.3340077221    8.4860076292
H       -6.9171847493   -5.0319627127    6.7274945526
H       -6.6948632352   -3.6787370326    7.8935097601
H       -1.4362391800   -6.9717723675    9.2146329603
H       -0.7019922226   -5.4284404038    8.6968016236
H       -0.9534605104   -6.7531953805    7.5085226696
35   
torsion grid (105,)
C        2.8907180716   -0.3005444771    4.2613484133
C        2.6976660900   -0.8630809800    5.5326804767
C        2.0175386771   -0.6185807719    3.2225238340
C       -0.2838596029   -1.4766037778    2.8115454465
C       -3.6502366878   -3.0617137095    5.1524745647
C        1.7216786512   -1.8497030462    5.7493968364
C       -4.6382127957   -3.6205389744    5.9427129789
C       -1.4158594461   -1.9143952340    3.4660019420
C       -1.9462854909   -4.3013129006    6.4079742355
C        1.0070552951   -1.5774596480    3.4462437053
C       -2.2878165192   -3.3832687316    5.3725007466
C        1.0472057045   -2.3384073897    4.6408590963
C       -4.3040841194   -4.5292442349    6.9662440717
C       -2.9250287183   -4.8758463749    7.1944612095
C       -1.2689740423   -2.7845128929    4.5871078260
C       -6.5856242478   -4.8495238421    7.6258495214
C       -1.3787593871   -6.1696324094    8.4684147623
O       -0.0106131812   -3.2364497231    4.7702223262
O       -5.1772939321   -5.1221587654    7.7706962690
O       -2.7231283925   -5.7576065259    8.1906647780
H        3.6588697186    0.4522376907    4.1144101825
H        3.2826205944   -0.5039192531    6.3740290104
H        2.0352436664   -0.0561236608    2.2928422124
H       -0.3806044141   -0.8731365145    1.9123606681
H       -3.9394071009   -2.3714952110    4.3685719253
H        1.5714113365   -2.2918203063    6.7299254784
H       -5.6744556523   -3.3595930477    5.7659279957
H       -2.3973788861   -1.6131246464    3.1240164976
H       -0.9041069845   -4.5476487010    6.5590650946
H       -7.0715475863   -5.4503608146    8.3921274660
H       -6.9342202147   -5.1550734936    6.6352100699
H       -6.7897172219   -3.7888350662    7.7979128972
H       -1.4559817145   -6.8816866024    9.2885708231
H       -0.7662229491   -5.3155523161    8.7784157593
H       -0.9328387628   -6.6582829122    7.5951938676
35   
torsion grid (120,)
C        2.9867075265   -0.3629493654    4.1612844184
C        2.8939753900   -0.9850108439    5.4187777120
C        1.9966515112   -0.5734240777    3.2076322200
C       -0.3535101326   -1.3525386061    2.8904205287
C       -3.6909010347   -3.0823465067    5.1541696819
C        1.8780211739   -1.9076454736    5.6971333759
C       -4.6785785698   -3.6785470140    5.9190590676
C       -1.4678437608   -1.8373344460    3.5385954112
C       -1.9760851398   -4.2448059551    6.4638306596
C        0.9456024305   -1.4718423903    3.4917778686
C       -2.3248577642   -3.3474076438    5.4136710851
C        1.0238521964   -2.2639325275    4.6614082877
C       -4.3381338989   -4.5667662864    6.9566565499
C       -2.9537722948   -4.8538528263    7.2261376713
C       -1.3060614200   -2.7130929951    4.6492196383
C       -6.6221554099   -4.9764195096    7.5523568580
C       -1.3920722681   -6.0705508665    8.5565224489
O       -0.0436891419   -3.1178187843    4.8852753602
O       -5.2096881181   -5.1916327507    7.7405334912
O       -2.7435313797   -5.7195514237    8.2352200633
H        3.7886956866    0.3420954464    3.9666771312
H        3.5986070666   -0.7219309474    6.2019988588
H        1.9731154587    0.0126539226    2.2929914510
H       -0.4707710929   -0.7328374316    2.0049771215
H       -3.9880315856   -2.4095409181    4.3583676745
H        1.8037602155   -2.3949870744    6.6645623220
H       -5.7188071326   -3.4610052310    5.7099025406
H       -2.4586890144   -1.5653254994    3.1997357516
H       -0.9302736877   -4.4473491227    6.6502954785
H       -7.1068941099   -5.5920626409    8.3076344934
H       -6.9291737393   -5.3006538454    6.5537999349
H       -6.8740129658   -3.9238675058    7.7112902907
H       -1.4630621948   -6.7790098308    9.3804076373
H       -0.8263301707   -5.1884799766    8.8771237194
H       -0.8990255048   -6.5464374821    7.7016497416
35   
torsion grid (135,)
C        3.0597368184   -0.4315544647    4.0863556334
C        3.0424332656   -1.1241827480    5.3122892682
C        1.9824801587   -0.5288793741    3.2159280175
C       -0.4080857216   -1.2347148274    2.9656697523
C       -3.7237303117   -3.0984491928    5.1377463417
C        1.9920293578   -1.9847211788    5.6404004108
C       -4.7134484890   -3.7282144520    5.8742984403
C       -1.5094977086   -1.7679877095    3.5939481716
C       -2.0108734593   -4.1917317905    6.5031971010
C        0.8941212115   -1.3667100751    3.5460005536
C       -2.3583169457   -3.3124076577    5.4380318834
C        0.9969401530   -2.1887089535    4.6907197700
C       -4.3738351504   -4.5982760868    6.9260586265
C       -2.9893809742   -4.8319057876    7.2392982968
C       -1.3372538670   -2.6467713265    4.6969350572
C       -6.6582391523   -5.0868541575    7.4546521783
C       -1.4254240761   -5.9775924803    8.6292722657
O       -0.0741220971   -3.0045987937    4.9916229843
O       -5.2461743368   -5.2517808298    7.6871374948
O       -2.7779533779   -5.6831430176    8.2608502705
H        3.8915514899    0.2249978642    3.8515648300
H        3.8433922674   -0.9682012330    6.0287302277
H        1.9341567899    0.0848233227    2.3207010210
H       -0.5377013733   -0.6009851262    2.0920743727
H       -4.0229742622   -2.4407980081    4.3303008355
H        1.9728428913   -2.5279144176    6.5800101607
H       -5.7536527954   -3.5494102717    5.6310559946
H       -2.5058621766   -1.5287062449    3.2474051282
H       -0.9655040197   -4.3553470386    6.7262948508
H       -7.1447347334   -5.7156272643    8.1979617267
H       -6.9234642149   -5.4257786192    6.4489198899
H       -6.9517065847   -4.0430495149    7.5999367485
H       -1.4954952479   -6.6816357619    9.4570634243
H       -0.9054186016   -5.0713584342    8.9599338871
H       -0.8859011894   -6.4408228578    7.7956597099
35   
torsion grid (150,)
C        3.1237461746   -0.5021857563    4.0096016585
C        3.1661200139   -1.2625777186    5.1960840325
C        1.9760942558   -0.4872570037    3.2315983825
C       -0.4464279329   -1.1172408357    3.0539944831
C       -3.7390223659   -3.1114031123    5.1286021145
C        2.0870950986   -2.0565478383    5.5823419709
C       -4.7285581400   -3.7771288898    5.8345943491
C       -1.5355511089   -1.6978385058    3.6584906566
C       -2.0336149396   -4.1383255861    6.5507761178
C        0.8586723088   -1.2630092395    3.6152161517
C       -2.3778832949   -3.2750309929    5.4720234896
C        0.9801868650   -2.1087772383    4.7395439754
C       -4.3924969083   -4.6311607593    6.8994617495
C       -3.0117067243   -4.8116219116    7.2579799134
C       -1.3557895728   -2.5776382312    4.7563624057
C       -6.6731603343   -5.1998604662    7.3568225078
C       -1.4521603136   -5.8891849488    8.7065236149
O       -0.0953976870   -2.8788746886    5.1150238592
O       -5.2648766968   -5.3150035321    7.6349331459
O       -2.8014744676   -5.6507860811    8.2901246475
H        3.9800669483    0.1026529839    3.7286005785
H        4.0454902117   -1.2168117193    5.8314749470
H        1.9066319134    0.1507233310    2.3550043413
H       -0.5859106722   -0.4703044278    2.1917441110
H       -4.0380286117   -2.4670213422    4.3104986801
H        2.1107810486   -2.6504224209    6.4904759299
H       -5.7659699860   -3.6371059406    5.5565303199
H       -2.5345437385   -1.4924990473    3.2985975821
H       -0.9914355946   -4.2631579809    6.8105991967
H       -7.1615476248   -5.8433212480    8.0862539625
H       -6.8945516981   -5.5500170255    6.3442674716
H       -7.0074706124   -4.1665531257    7.4888997741
H       -1.5227865538   -6.5906212231    9.5365189500
H       -0.9796501088   -4.9612575179    9.0481951512
H       -0.8663397217   -6.3358815918    7.8953277248
35   
torsion grid (165,)
C        3.1686468272   -0.5726701739    3.9352780368
C        3.2548144729   -1.3951675969    5.0784288006
C        1.9694723151   -0.4482192047    3.2526648596
C       -0.4777861941   -1.0024088865    3.1509239876
C       -3.7434993166   -3.1180532856    5.1362220987
C        2.1536822590   -2.1190972115    5.5280500591
C       -4.7290961837   -3.8191868691    5.8139536266
C       -1.5548298858   -1.6281604734    3.7293212177
C       -2.0474688647   -4.0806761662    6.6102589720
C        0.8308063306   -1.1603686058    3.6945952534
C       -2.3886091798   -3.2322710301    5.5190381706
C        0.9668477533   -2.0226726155    4.8042600893
C       -4.3955258860   -4.6578827269    6.8910399847
C       -3.0209779886   -4.7869607298    7.2916096740
C       -1.3688015600   -2.5042742389    4.8269640265
C       -6.6667846788   -5.3067983924    7.2808487909
C       -1.4672795158   -5.8000582087    8.7923867010
O       -0.1154943695   -2.7371026953    5.2528170636
O       -5.2648719775   -5.3714401160    7.6025049583
O       -2.8107903360   -5.6149674512    8.3330731879
H        4.0432076155   -0.0218023363    3.6040190489
H        4.1915877674   -1.4593871222    5.6237784216
H        1.8840310339    0.2100410923    2.3926615044
H       -0.6253960745   -0.3451534455    2.2979036066
H       -4.0426271035   -2.4855425912    4.3089823879
H        2.2074939599   -2.7579298838    6.4037394032
H       -5.7619350866   -3.7169100861    5.5042396777
H       -2.5534283526   -1.4592344556    3.3503332633
H       -1.0102215406   -4.1680106004    6.9027464733
H       -7.1546991083   -5.9655333183    7.9968784902
H       -6.8446104933   -5.6666196385    6.2630432142
H       -7.0415160120   -4.2857099308    7.3991562604
H       -1.5372067869   -6.4995214190    9.6241302501
H       -1.0406180340   -4.8533242618    9.1426846589
H       -0.8400932039   -6.2286476138    8.0025398760
35   
torsion grid (180,)
C        3.1997911870   -0.6672894541    3.8530451313
C        3.3069952007   -1.5486921950    4.9499879581
C        1.9678700056   -0.4289481662    3.2666234938
C       -0.4999468315   -0.8964547230    3.2402098068
C       -3.7459128321   -3.1134808467    5.1408515575
C        2.1872485924   -2.1948074526    5.4653450326
C       -4.7268089315   -3.8449223275    5.7933135953
C       -1.5692691671   -1.5601498168    3.7888991979
C       -2.0628460005   -4.0158807945    6.6659526333
C        0.8119353794   -1.0709993720    3.7681811674
C       -2.3994861149   -3.1831357131    5.5614228517
C        0.9532487993   -1.9467656516    4.8664629529
C       -4.3979563298   -4.6673774022    6.8840524948
C       -3.0321372866   -4.7493145226    7.3243822526
C       -1.3825699166   -2.4300414369    4.8906689469
C       -6.6566660911   -5.3905116970    7.2099264186
C       -1.4899281699   -5.7021770687    8.8756931589
O       -0.1425068892   -2.5895326639    5.3834069049
O       -5.2639340059   -5.4058473051    7.5742794395
O       -2.8247927536   -5.5647073266    8.3764186962
H        4.0889706560   -0.1762234115    3.4706044111
H        4.2783467674   -1.7275091264    5.4011437328
H        1.8750353510    0.2478391187    2.4218686933
H       -0.6502715214   -0.2298808810    2.3949562323
H       -4.0426854289   -2.4926489113    4.3039825426
H        2.2558137377   -2.8749276512    6.3082450896
H       -5.7531314217   -3.7772110591    5.4539195147
H       -2.5632487150   -1.4238863218    3.3855479707
H       -1.0321595797   -4.0691865594    6.9881982372
H       -7.1435968868   -6.0624604634    7.9142643806
H       -6.7910378318   -5.7605189024    6.1890842268
H       -7.0695036826   -4.3823697388    7.3113289673
H       -1.5610128160   -6.3978930020    9.7104854676
H       -1.1047095156   -4.7395578957    9.2306253441
H       -0.8263946565   -6.1154585650    8.1076257489
