19   
torsion grid (-165,)
C        2.7128363699   -4.1464377604   -0.7161019009
C        4.5524118008   -2.9468314733   -0.2998500590
C        4.1377829984   -4.2006009848   -0.6900743939
C        1.4501511062    1.3223841209    0.6096712402
C        1.7595594603   -0.1731353532    0.6587784514
N        2.2683714080   -2.9453462316   -0.3757451044
N        3.3881159691   -2.2318498565   -0.0550526707
O        4.4663282949   -0.0130847850    0.5467267434
O        3.1562881374   -0.1357309224   -1.6218857537
O        4.8539341286   -5.3253242461   -0.9843640916
S        3.3116082741   -0.4927383222   -0.2137002895
H        2.0225555387   -4.9436694388   -0.9634336882
H        5.5265951949   -2.5129057423   -0.1217384186
H        2.2357261483    1.9095542116    1.0919011137
H        1.3326107404    1.6665159141   -0.4203754606
H        0.5122613893    1.5030966197    1.1423817514
H        1.0080272666   -0.7839322856    0.1575037494
H        1.9111628574   -0.5410631555    1.6757721972
H        5.8012977421   -5.1184890466   -0.9668954333
19   
torsion grid (-150,)
C        2.6647710504   -4.2014008626   -0.8211968548
C        4.4621312476   -2.9749290422   -0.3011348272
C        4.0777802506   -4.2535239659   -0.6461328730
C        1.3879418482    1.2674947966    0.6647021934
C        1.7248161982   -0.2224653957    0.6589885718
N        2.1967365990   -2.9772686670   -0.6096766748
N        3.2850290204   -2.2470017928   -0.2458119322
O        4.4116447306   -0.0619166971    0.3439489413
O        2.9343956501   -0.1082987833   -1.7225474991
O        4.8150356983   -5.3948284554   -0.7912922886
S        3.2010739235   -0.5105324721   -0.3453646544
H        1.9962810753   -5.0120486120   -1.0836476373
H        5.4145526046   -2.5257234304   -0.0572878041
H        2.2012949315    1.8589773059    1.0927223649
H        1.1816842139    1.6281225993   -0.3455229313
H        0.4941937818    1.4230218522    1.2755670881
H        0.9426040826   -0.8362442416    0.2088942016
H        1.9657406127   -0.6070087380    1.6523352508
H        5.7558799173   -5.1867385608   -0.6821357408
19   
torsion grid (-135,)
C        2.6776765977   -4.1961822651   -0.8962230230
C        4.4353216484   -2.9467213463   -0.2984901794
C        4.0655893465   -4.2456534709   -0.5842618809
C        1.3998906061    1.2423564766    0.7435877991
C        1.7529180852   -0.2411739003    0.6563990537
N        2.2088498252   -2.9546924484   -0.8186186188
N        3.2735597447   -2.2087499694   -0.4325318359
O        4.4082250181   -0.0416062354    0.1843648534
O        2.8036158896   -0.0270563651   -1.7911397614
O        4.7998782373   -5.3990020443   -0.5782280224
S        3.1637013809   -0.4752884973   -0.4516062401
H        2.0247289066   -5.0177577991   -1.1633286440
H        5.3678276750   -2.4841634980   -0.0080738790
H        2.2326858983    1.8276289114    1.1417838659
H        1.1251510588    1.6389130465   -0.2363882756
H        0.5457142951    1.3621103219    1.4160950230
H        0.9490991296   -0.8466554381    0.2328653789
H        2.0611865123   -0.6617194437    1.6160842094
H        5.7292778191   -5.1880379925   -0.3994012943
19   
torsion grid (-120,)
C        2.6828700857   -4.1890065374   -0.9626167921
C        4.4090871748   -2.9266035051   -0.3033366119
C        4.0355442414   -4.2376552960   -0.5236245968
C        1.4450518011    1.1977258294    0.8105516826
C        1.8000833325   -0.2770750339    0.6323861508
N        2.2379831897   -2.9369411777   -1.0202943616
N        3.2893169433   -2.1813559628   -0.6217814977
O        4.4148836021   -0.0177006073    0.0164792451
O        2.6974548870    0.0247855969   -1.8665229284
O        4.7425136337   -5.3983892994   -0.3722568053
S        3.1454306381   -0.4534528463   -0.5660139668
H        2.0377023474   -5.0169644513   -1.2287938711
H        5.3252331430   -2.4572960968    0.0254279545
H        2.2971627705    1.7697885246    1.1863077463
H        1.1109162077    1.6376002584   -0.1318104125
H        0.6311920889    1.2793583094    1.5367499037
H        0.9751615411   -0.8674980986    0.2281816314
H        2.1648703305   -0.7396453866    1.5523194720
H        5.6547543958   -5.1889909878   -0.1188941916
19   
torsion grid (-105,)
C        2.6933740417   -4.1831449420   -1.0337244824
C        4.3759056152   -2.9034216115   -0.3002120639
C        4.0000304867   -4.2207532912   -0.4698137092
C        1.4936817686    1.1166657869    0.9060265282
C        1.8413790626   -0.3438792064    0.6249190635
N        2.2794912892   -2.9326220386   -1.2126984171
N        3.3138613095   -2.1644680712   -0.7904438112
O        4.3975532495    0.0164268883   -0.1367899277
O        2.5692084725    0.0462808123   -1.9175369821
O        4.6716441261   -5.3782146828   -0.1899615904
S        3.1128867741   -0.4468322626   -0.6613530203
H        2.0610694371   -5.0185443893   -1.3076331579
H        5.2709199445   -2.4259463264    0.0722061511
H        2.3667819224    1.6720151925    1.2575103286
H        1.0992852419    1.6053723926    0.0120949908
H        0.7267002144    1.1539329862    1.6850218762
H        0.9945157214   -0.9154261337    0.2392535691
H        2.2615866312   -0.8534233977    1.4953051467
H        5.5551964241   -5.1643753732    0.1475434807
19   
torsion grid (-90,)
C        2.6995397817   -4.1351060178   -1.1030667422
C        4.3359233982   -2.8396981235   -0.2978761222
C        3.9472762232   -4.1575731095   -0.4144957461
C        1.5251218483    1.0577413647    0.9479627374
C        1.8957676847   -0.3826623449    0.5998628347
N        2.3340766858   -2.8942831391   -1.4017938237
N        3.3546706729   -2.1143606409   -0.9562496208
O        4.3741252514    0.1020088612   -0.3045328381
O        2.4457620074    0.0788749058   -1.9799655364
O        4.5616919339   -5.3057470283   -0.0009115289
S        3.0846135342   -0.4095319104   -0.7686085148
H        2.0780398222   -4.9769376035   -1.3825074152
H        5.2097731474   -2.3565597480    0.1158346689
H        2.4034888500    1.6286676095    1.2588114431
H        1.0594078020    1.5598290099    0.0967041137
H        0.8097626741    1.0494752568    1.7754713375
H        1.0413968905   -0.9679938940    0.2531363692
H        2.3865301332   -0.9030101811    1.4258937604
H        5.4152956699   -5.0869796923    0.4040163334
19   
torsion grid (-75,)
C        2.7298539787   -4.1043426711   -1.1907071510
C        4.2885794690   -2.8005536258   -0.2588618391
C        3.8932971684   -4.1156567339   -0.3647146700
C        1.5718432535    0.9851432415    1.0027701873
C        1.9846871994   -0.4338130110    0.6160167735
N        2.4215922246   -2.8741746591   -1.5760135033
N        3.4115689761   -2.0862466569   -1.0670530791
O        4.3544144481    0.1800242932   -0.4516236077
O        2.3257991794    0.0652732893   -2.0020689404
O        4.4349141290   -5.2541618019    0.1596589453
S        3.0669509430   -0.3956779558   -0.8399915995
H        2.1291290402   -4.9494253893   -1.5042870038
H        5.1292019165   -2.3175097560    0.2196389490
H        2.4433768734    1.5965563373    1.2488517829
H        1.0178307824    1.4673916997    0.1939756271
H        0.9239374147    0.9387152862    1.8829729206
H        1.1330984750   -1.0570319603    0.3326883678
H        2.5610141422   -0.9328695185    1.3981254138
H        5.2456065357   -5.0332272312    0.6439893983
19   
torsion grid (-60,)
C        2.7761961226   -4.1124429507   -1.2945888444
C        4.2239029963   -2.7991111892   -0.2132722434
C        3.8301559500   -4.1118885582   -0.3306979894
C        1.5895073582    0.9284821367    0.9717058658
C        2.1011018889   -0.4679684683    0.6222812527
N        2.5309278936   -2.8925201217   -1.7445733046
N        3.4704743955   -2.0948889833   -1.1506484150
O        4.3273693068    0.2426423142   -0.6455544029
O        2.1984932504   -0.0198499505   -2.0350917998
O        4.2878837491   -5.2403982730    0.2853093700
S        3.0505901172   -0.4134761381   -0.9260098896
H        2.2089242116   -4.9611075848   -1.6573954814
H        5.0169959056   -2.3179038502    0.3429708261
H        2.4170991608    1.6289894339    1.1073282910
H        0.9262036690    1.3105938357    0.1923156140
H        1.0261130514    0.8758462501    1.9079873866
H        1.2898565397   -1.1804467806    0.4520630418
H        2.7856360620   -0.8640023698    1.3745071713
H        5.0414431784   -5.0166020073    0.8534386645
19   
torsion grid (-45,)
C        3.1288019851   -3.8706221048   -2.0571688984
C        3.1518153199   -3.2471133674    0.0853633275
C        2.8969905949   -4.3292597025   -0.7253570251
C        1.3778837082    1.0231402661    0.5512106736
C        1.7355907172   -0.4320108768    0.2521713775
N        3.4959041704   -2.5956953318   -2.0744895564
N        3.5822480844   -2.2364446069   -0.7643648893
O        4.3374027819   -0.3020227336    0.7453301627
O        3.5608880209    0.2073134963   -1.6332365361
O        2.5004146571   -5.5632386106   -0.2913654380
S        3.4366314808   -0.5239461830   -0.3837730402
H        3.0407623068   -4.4204573674   -2.9883084784
H        3.1722004485   -3.1502702494    1.1612077017
H        2.0471027625    1.4468344510    1.3038848582
H        1.4283510001    1.6350097190   -0.3523197893
H        0.3555199461    1.0632147875    0.9383427667
H        1.0954004303   -0.8709866888   -0.5173224613
H        1.7147733144   -1.0566872966    1.1461363114
H        2.5143916931   -6.1807700004   -1.0384895750
19   
torsion grid (-30,)
C        3.6511756387   -3.9826089675   -1.9740906745
C        2.6387364735   -3.2447766161   -0.1262108021
C        2.9398771587   -4.4015679000   -0.8162371202
C        1.4793733619    1.1689190043    0.7225897564
C        1.7196583238   -0.3179614507    0.4566634597
N        3.7826156853   -2.6580590407   -2.0085640456
N        3.1648931356   -2.2207732249   -0.8911976545
O        4.3808540360   -0.2378399780    0.2960696276
O        3.0446796893    0.1791942417   -1.8274186376
O        2.5859816173   -5.6617965961   -0.4175136385
S        3.2196190711   -0.4969885624   -0.5504941094
H        4.0633397930   -4.5860881464   -2.7752718194
H        2.1237773282   -3.0950149092    0.8098641015
H        2.3186265104    1.6139364960    1.2623161944
H        1.3280205249    1.7154075915   -0.2106680195
H        0.5805823424    1.2747930288    1.3364916996
H        0.9045964057   -0.7753030351   -0.1083091393
H        1.8950509777   -0.8686467254    1.3826975962
H        2.9181318066   -6.3010681785   -1.0661318716
19   
torsion grid (-15,)
C        3.8047279531   -4.0068457388   -1.8625600896
C        2.4870592192   -3.2428448811   -0.2292901306
C        2.9048548827   -4.4092528814   -0.8383624004
C        1.5390323508    1.1516173861    0.8184632365
C        1.7533265677   -0.3328009185    0.5161476456
N        3.9390846340   -2.6824724620   -1.8932357411
N        3.1345812935   -2.2287299546   -0.9101138877
O        4.3868779777   -0.1742614582    0.0991434989
O        2.8391379841    0.1471001942   -1.8892470044
O        2.4885976908   -5.6641012105   -0.4847683207
S        3.1580654055   -0.4937572000   -0.6204646190
H        4.3498111197   -4.6214584358   -2.5703317516
H        1.8055167918   -3.0825084620    0.5910062974
H        2.4238434715    1.5904218928    1.2851327334
H        1.3044138555    1.7080804557   -0.0915043655
H        0.6988265510    1.2502989239    1.5113046398
H        0.8890970486   -0.7788467232    0.0192456883
H        2.0104057570   -0.8949043874    1.4162223960
H        2.9312679482   -6.3131220099   -1.0526687884
19   
torsion grid (0,)
C        3.9077149613   -4.0158933092   -1.7668950312
C        2.4050495946   -3.2329361649   -0.3118451623
C        2.8900920238   -4.4061850506   -0.8548350785
C        1.5498476588    1.1442721153    0.8415247634
C        1.7573972634   -0.3373765075    0.5212631805
N        4.0501243065   -2.6920799653   -1.7921315559
N        3.1401748871   -2.2276564446   -0.9121332068
O        4.3420641029   -0.0645437391   -0.1176890805
O        2.6196216560    0.0847265685   -1.9776165452
O        2.4360242207   -5.6571059323   -0.5348778465
S        3.0778566133   -0.4801847200   -0.7137812630
H        4.5332780970   -4.6385904633   -2.3967048352
H        1.6308876667   -3.0642421431    0.4196659821
H        2.4591127516    1.5892611743    1.2515695948
H        1.2518883605    1.7014654071   -0.0493769964
H        0.7548011754    1.2332388750    1.5869414361
H        0.8641135288   -0.7876009971    0.0830923529
H        2.0809597215   -0.9014639623    1.3985758230
H        2.9355722968   -6.3122925775   -1.0456311813
19   
torsion grid (15,)
C        3.9569715434   -4.0753600639   -1.6509486742
C        2.3030815224   -3.2538765432   -0.3948281289
C        2.8317618729   -4.4403134987   -0.8626408339
C        1.5980512682    1.1386187353    0.8338773749
C        1.7756142841   -0.3480460536    0.5191036718
N        4.1216651760   -2.7542844871   -1.6736047932
N        3.1249052564   -2.2669013643   -0.9064312218
O        4.2939553009   -0.0283408370   -0.3471007843
O        2.4143460529   -0.0350448084   -2.0558380547
O        2.3308538802   -5.6815134321   -0.5772708943
S        3.0006607445   -0.5149228649   -0.8085092544
H        4.6451029203   -4.7146990317   -2.1927273513
H        1.4504449795   -3.0643579165    0.2377900078
H        2.5346595719    1.5818792316    1.1788348274
H        1.2466551207    1.6877520126   -0.0426023004
H        0.8527791456    1.2420407536    1.6273425656
H        0.8501446316   -0.7961787269    0.1518755794
H        2.1578379781   -0.9058268591    1.3767657366
H        2.8689157171   -6.3486676157   -1.0301367138
19   
torsion grid (30,)
C        4.0557693785   -4.0761993284   -1.4901989888
C        2.2144212251   -3.2346107038   -0.5490373428
C        2.8115279726   -4.4286770717   -0.8984769157
C        1.6837012192    1.1447047336    0.8949211677
C        1.8428182183   -0.3403612151    0.5662307548
N        4.2272539105   -2.7562103376   -1.5059047991
N        3.1132458420   -2.2559771040   -0.9309410539
O        4.2631209915    0.0194721232   -0.5437524129
O        2.2235859288   -0.0754162194   -2.0601453508
O        2.2693599480   -5.6656350359   -0.6786637192
S        2.9452323739   -0.5072123349   -0.8663928538
H        4.8245155482   -4.7249341551   -1.8953950275
H        1.2593502937   -3.0301721003   -0.0909616096
H        2.6446205748    1.5953090296    1.1522691419
H        1.2495233776    1.6906430823    0.0540548912
H        1.0131823522    1.2442509681    1.7530591427
H        0.8906321017   -0.7945354940    0.2860548219
H        2.3034937620   -0.8992801009    1.3836675357
H        2.8689137327   -6.3388260256   -1.0350909291
19   
torsion grid (45,)
C        4.0709370738   -3.9688916729   -1.0313809788
C        2.0075811254   -3.1241540153   -1.1009479273
C        2.6885621222   -4.3078481130   -0.9318229012
C        1.7834940133    0.9817919358    1.0689595723
C        1.9885924638   -0.4551652638    0.5915416924
N        4.2379046284   -2.6690971640   -1.2403287913
N        2.9794023095   -2.1652110042   -1.3549594656
O        4.0745842372    0.1586277906   -1.0095589806
O        1.7322860743   -0.0196350357   -2.0104491124
O        2.1082793523   -5.5256365639   -0.7108629195
S        2.7543232864   -0.4463994909   -1.0572815626
H        4.9360162028   -4.6194227705   -0.9576930521
H        0.9504032974   -2.9140107756   -1.1749485077
H        2.7360146069    1.5108211464    1.1475110079
H        1.1272062773    1.5323971936    0.3907467174
H        1.3173759295    0.9619775566    2.0584047177
H        1.0469559870   -0.9952373233    0.4844220165
H        2.6635007023   -1.0196298527    1.2400486554
H        2.7900778802   -6.2133200240   -0.7553918800
19   
torsion grid (60,)
C        3.4063767048   -4.2003070310    0.4932603677
C        4.0948290561   -2.6568675429   -0.9679086762
C        3.7667305072   -3.9898237577   -0.8720397598
C        1.4520424422    1.1023837229    0.0842302802
C        1.9888918462   -0.3124045168   -0.1249743027
N        3.5037255240   -3.0831110291    1.1967703921
N        4.0045008134   -2.1541301475    0.3284007437
O        3.5281036010   -0.3187045429    2.0903565038
O        4.5808634668    0.2705353473   -0.1626875873
O        3.7617133045   -4.9774344123   -1.8140412223
S        3.6236231467   -0.4798416486    0.6496343486
H        3.0873250887   -5.1234888220    0.9617509053
H        4.4850608980   -2.0538196697   -1.7766201935
H        1.3360923360    1.3254511332    1.1473650244
H        2.1155334556    1.8463015102   -0.3634526104
H        0.4713561689    1.1838855630   -0.3936479227
H        2.1367147220   -0.5541709140   -1.1789084180
H        1.3560361920   -1.0723177611    0.3408957613
H        4.0949827006   -4.6254255635   -2.6540935849
19   
torsion grid (75,)
C        3.2921157853   -4.1777696487    0.4485822315
C        4.1751957772   -2.6606212708   -0.9356029095
C        3.8274673461   -3.9911953860   -0.8608229896
C        1.4159223197    1.1544290437    0.1350512136
C        1.8952133686   -0.2882634127   -0.0145294769
N        3.3065246654   -3.0488788277    1.1429892177
N        3.9096376490   -2.1391258563    0.3253941730
O        3.6150954690   -0.2356665244    2.0493393096
O        4.4970566636    0.2410536290   -0.3016554711
O        3.9396165094   -4.9948324584   -1.7798697273
S        3.5900408560   -0.4527783204    0.6125126167
H        2.9086040257   -5.0916182404    0.8858051769
H        4.6526156556   -2.0631395750   -1.6998187024
H        1.4093996879    1.4595352559    1.1840983113
H        2.0504002954    1.8416862156   -0.4298166093
H        0.3954294341    1.2311760777   -0.2514706898
H        1.9339920446   -0.6134953238   -1.0564566989
H        1.2968537925   -0.9926344229    0.5683280483
H        4.3745529871   -4.6556555286   -2.5776177408
19   
torsion grid (90,)
C        3.2176816018   -4.2014509148    0.3775122035
C        4.2298224218   -2.7115298678   -0.9489104775
C        3.8951881807   -4.0467438207   -0.8669033401
C        1.4074478083    1.2071787910    0.1934660352
C        1.8265394328   -0.2539388634    0.0424013818
N        3.1371582867   -3.0490231092    1.0316199837
N        3.7975812970   -2.1572839999    0.2462127220
O        3.7022966885   -0.2183700861    1.9535178751
O        4.4240284193    0.1833176382   -0.4639290930
O        4.1281427704   -5.0767104703   -1.7339725413
S        3.5613401443   -0.4603067882    0.5267960920
H        2.8005396098   -5.1071302433    0.8002926747
H        4.7673353437   -2.1236402818   -1.6794404898
H        1.5014206007    1.5370811535    1.2307610941
H        2.0107930560    1.8601109997   -0.4419431253
H        0.3601052278    1.3081942432   -0.1056092792
H        1.7662333301   -0.6050624693   -0.9905866729
H        1.2618118659   -0.9260635584    0.6920604119
H        4.6393806225   -4.7515535005   -2.4911837775
19   
torsion grid (105,)
C        3.1725498544   -4.2296528156    0.3248353505
C        4.2660008899   -2.7643680125   -0.9651739323
C        3.9682581925   -4.1072473051   -0.8493221333
C        1.4111164774    1.2640217413    0.2789983225
C        1.7751732439   -0.2049695604    0.0724768035
N        2.9885649426   -3.0501396220    0.9096653628
N        3.6753485639   -2.1726409071    0.1372330284
O        3.7741265969   -0.2287902502    1.8471483993
O        4.3559234558    0.1370870082   -0.6109857996
O        4.3202695399   -5.1655807620   -1.6399602062
S        3.5305813595   -0.4700442039    0.4332128298
H        2.7412731075   -5.1286753672    0.7473155111
H        4.8462020432   -2.1879906313   -1.6714944121
H        1.5855376163    1.5700119774    1.3131350684
H        1.9878144143    1.9130392277   -0.3846705185
H        0.3492275760    1.4000726179    0.0545763244
H        1.6340571845   -0.5343202672   -0.9597072902
H        1.2380085615   -0.8746276111    0.7474441579
H        4.8949352704   -4.8550881928   -2.3566578485
19   
torsion grid (120,)
C        3.1170661952   -4.2215804974    0.2816260534
C        4.2905498492   -2.7787017549   -0.9629878293
C        4.0230421079   -4.1249465077   -0.8113828347
C        1.4119894557    1.3246863871    0.4216826852
C        1.7290603128   -0.1384004779    0.1189260128
N        2.8386106436   -3.0229493910    0.7862772303
N        3.5542845302   -2.1577433577    0.0284811622
O        3.8350383479   -0.2377406943    1.7609119054
O        4.2791723716    0.1375478782   -0.7207921516
O        4.4778748552   -5.2042885545   -1.5171940330
S        3.4945844202   -0.4563596331    0.3619713683
H        2.6700532630   -5.1144421976    0.7006531816
H        4.9141562933   -2.2139558166   -1.6411048541
H        1.6552816690    1.5727691035    1.4572646092
H        1.9614292894    1.9968475356   -0.2422987101
H        0.3419482948    1.4925411992    0.2692587356
H        1.5225227484   -0.4112734616   -0.9184752902
H        1.2166632886   -0.8321993842    0.7886791267
H        5.1246710025   -4.9085811839   -2.1763115487
19   
torsion grid (135,)
C        3.0739382803   -4.2273025100    0.2304488653
C        4.3079748971   -2.8110949978   -0.9857639578
C        4.0766594088   -4.1559465010   -0.7772818167
C        1.4209456582    1.3492195547    0.4987186673
C        1.6835012881   -0.1085707724    0.1258774815
N        2.7050482622   -3.0149062740    0.6318771661
N        3.4393426414   -2.1635353987   -0.1264634883
O        3.8872611729   -0.2794746047    1.6274447324
O        4.1878170231    0.1291590106   -0.8665953778
O        4.6298460728   -5.2545000813   -1.3744379598
S        3.4523294599   -0.4675854497    0.2489025411
H        2.6198492625   -5.1127780325    0.6575421583
H        4.9660188884   -2.2614201804   -1.6435670160
H        1.7334974365    1.5545061368    1.5250053242
H        1.9439431049    2.0333265784   -0.1744234073
H        0.3478901319    1.5452683853    0.4190930847
H        1.4087514247   -0.3394510802   -0.9056702779
H        1.1973443655   -0.8156486929    0.8010055685
H        5.3309090627   -4.9720054433   -1.9818718982
19   
torsion grid (150,)
C        3.0256519310   -4.2097970982    0.1718589078
C        4.3317055201   -2.8233037378   -1.0015981531
C        4.1231267012   -4.1601521075   -0.7353513552
C        1.4455104070    1.3644951296    0.5851075095
C        1.6543110467   -0.0835325708    0.1456777439
N        2.5825778617   -2.9922588489    0.4609758687
N        3.3466771865   -2.1562355256   -0.2922143031
O        3.9508676246   -0.3316093325    1.4919284933
O        4.1000547851    0.1515420627   -0.9978650101
O        4.7626335001   -5.2712156766   -1.2083840427
S        3.4209547389   -0.4708457141    0.1393870096
H        2.5578380367   -5.0861370721    0.6032384736
H        5.0302096651   -2.2914921292   -1.6321728151
H        1.8282027433    1.5282063974    1.5949955627
H        1.9360726160    2.0634202838   -0.0971421045
H        0.3734441412    1.5808362409    0.5832393789
H        1.3087155134   -0.2720618719   -0.8729886312
H        1.2005374598   -0.8066393343    0.8256652897
H        5.5104230854   -5.0007804836   -1.7634337023
19   
torsion grid (165,)
C        2.9733816676   -4.1840775721    0.0852676504
C        4.3726088476   -2.8399786192   -1.0256878027
C        4.1610373759   -4.1621181793   -0.7040146362
C        1.4988241465    1.3617325678    0.6366685531
C        1.6531047935   -0.0809735116    0.1577699186
N        2.4825450426   -2.9645218374    0.2526498956
N        3.2969582745   -2.1511214047   -0.4825365147
O        4.0456127328   -0.3839835510    1.3118333207
O        4.0118505371    0.1891770412   -1.1589485497
O        4.8620366536   -5.2845233663   -1.0406234309
S        3.4114609959   -0.4747078734   -0.0011949221
H        2.4778718460   -5.0455310406    0.5160910959
H        5.1246788752   -2.3338839166   -1.6150013221
H        1.9643152381    1.5040246104    1.6145662496
H        1.9397618645    2.0676889841   -0.0716227371
H        0.4326501876    1.5882377825    0.7263194958
H        1.2218645087   -0.2470997033   -0.8317168628
H        1.2500713190   -0.8119483030    0.8595154541
H        5.6651865599   -5.0311689850   -1.5216057761
19   
torsion grid (180,)
C        2.8598449106   -4.1568195294   -0.0503013261
C        4.4161552572   -2.8434620922   -0.9691253119
C        4.1451290576   -4.1590258226   -0.6679456740
C        1.5023715834    1.3560647634    0.6565264796
C        1.6431306418   -0.1158358913    0.2686932532
N        2.3678496327   -2.9297324506    0.0359935544
N        3.2843545840   -2.1327692079   -0.5936596184
O        4.1390887325   -0.4031558860    1.1850899719
O        3.8663074690    0.2690676407   -1.2416534435
O        4.8701584320   -5.2934270102   -0.8937772188
S        3.3877620501   -0.4619436376   -0.0685520660
H        2.2970878973   -5.0069666163    0.3155526096
H        5.2529385294   -2.3576317552   -1.4521722985
H        2.0773808590    1.5850525962    1.5568505995
H        1.8302582554    2.0153527013   -0.1507452304
H        0.4480158733    1.5619751728    0.8615363670
H        1.0994003644   -0.3666661645   -0.6442609192
H        1.3509968703   -0.8003270211    1.0641754928
H        5.7347782035   -5.0556963814   -1.2633339238
