
  -OEChem-12122420533D

 20 20  0     0  0  0  0  0  0999 V2000
    1.7803   -1.0949   -0.2200 C   0  0  0  0  0  0  0  0  0  0  0  0
    0.8113   -0.3419    0.4543 C   0  0  0  0  0  0  0  0  0  0  0  0
    2.7651   -1.7702    0.5019 C   0  0  0  0  0  0  0  0  0  0  0  0
    0.8200   -0.2828    1.8484 C   0  0  0  0  0  0  0  0  0  0  0  0
    2.7892   -1.7003    1.9009 C   0  0  0  0  0  0  0  0  0  0  0  0
    1.7958   -0.9730    2.5792 C   0  0  0  0  0  0  0  0  0  0  0  0
    3.9180   -2.3936    2.6214 C   0  0  0  0  0  0  0  0  0  0  0  0
    1.7118   -0.9279    4.0842 C   0  0  0  0  0  0  0  0  0  0  0  0
    4.6585   -1.5885    3.4405 N   0  0  0  0  0  0  0  0  0  0  0  0
    1.6437   -2.1490    4.6939 N   0  0  0  0  0  0  0  0  0  0  0  0
    4.1718   -3.5848    2.4486 O   0  0  0  0  0  0  0  0  0  0  0  0
    1.6675    0.1324    4.7063 O   0  0  0  0  0  0  0  0  0  0  0  0
    1.7720   -1.1486   -1.3053 H   0  0  0  0  0  0  0  0  0  0  0  0
    0.0473    0.1909   -0.1053 H   0  0  0  0  0  0  0  0  0  0  0  0
    3.5292   -2.3495   -0.0082 H   0  0  0  0  0  0  0  0  0  0  0  0
    0.0685    0.2888    2.3851 H   0  0  0  0  0  0  0  0  0  0  0  0
    5.3793   -2.0166    4.0084 H   0  0  0  0  0  0  0  0  0  0  0  0
    4.4053   -0.6253    3.6184 H   0  0  0  0  0  0  0  0  0  0  0  0
    1.6643   -2.1814    5.7057 H   0  0  0  0  0  0  0  0  0  0  0  0
    1.7385   -3.0133    4.1766 H   0  0  0  0  0  0  0  0  0  0  0  0
  1  2  1  0  0  0  0
  1  3  2  0  0  0  0
  1 13  1  0  0  0  0
  2  4  2  0  0  0  0
  2 14  1  0  0  0  0
  3  5  1  0  0  0  0
  3 15  1  0  0  0  0
  4  6  1  0  0  0  0
  4 16  1  0  0  0  0
  5  6  2  0  0  0  0
  5  7  1  0  0  0  0
  6  8  1  0  0  0  0
  7  9  1  0  0  0  0
  7 11  2  0  0  0  0
  8 10  1  0  0  0  0
  8 12  2  0  0  0  0
  9 17  1  0  0  0  0
  9 18  1  0  0  0  0
 10 19  1  0  0  0  0
 10 20  1  0  0  0  0
M  END
$$$$
