
  -OEChem-12122420533D

 26 27  0     0  0  0  0  0  0999 V2000
    1.8699   -1.0488   -0.1811 C   0  0  0  0  0  0  0  0  0  0  0  0
    2.6537   -0.7794    9.2744 C   0  0  0  0  0  0  0  0  0  0  0  0
    0.7152   -1.4233    0.5116 C   0  0  0  0  0  0  0  0  0  0  0  0
    3.0127   -0.6761    0.5400 C   0  0  0  0  0  0  0  0  0  0  0  0
    3.8085   -0.4049    8.5817 C   0  0  0  0  0  0  0  0  0  0  0  0
    1.5109   -1.1521    8.5533 C   0  0  0  0  0  0  0  0  0  0  0  0
    0.7059   -1.4243    1.9079 C   0  0  0  0  0  0  0  0  0  0  0  0
    3.0020   -0.6775    1.9331 C   0  0  0  0  0  0  0  0  0  0  0  0
    3.8177   -0.4040    7.1854 C   0  0  0  0  0  0  0  0  0  0  0  0
    1.5216   -1.1507    7.1602 C   0  0  0  0  0  0  0  0  0  0  0  0
    1.8452   -1.0526    2.6487 C   0  0  0  0  0  0  0  0  0  0  0  0
    2.6784   -0.7756    6.4446 C   0  0  0  0  0  0  0  0  0  0  0  0
    1.7701   -1.0749    4.1129 C   0  0  0  0  0  0  0  0  0  0  0  0
    2.7536   -0.7534    4.9804 C   0  0  0  0  0  0  0  0  0  0  0  0
    1.8827   -1.0463   -1.2678 H   0  0  0  0  0  0  0  0  0  0  0  0
    2.6409   -0.7819   10.3611 H   0  0  0  0  0  0  0  0  0  0  0  0
   -0.1783   -1.7147   -0.0348 H   0  0  0  0  0  0  0  0  0  0  0  0
    3.9155   -0.3833    0.0097 H   0  0  0  0  0  0  0  0  0  0  0  0
    4.7019   -0.1136    9.1282 H   0  0  0  0  0  0  0  0  0  0  0  0
    0.6081   -1.4449    9.0836 H   0  0  0  0  0  0  0  0  0  0  0  0
   -0.1976   -1.7173    2.4386 H   0  0  0  0  0  0  0  0  0  0  0  0
    3.9012   -0.3843    2.4670 H   0  0  0  0  0  0  0  0  0  0  0  0
    4.7212   -0.1110    6.6547 H   0  0  0  0  0  0  0  0  0  0  0  0
    0.6224   -1.4438    6.6263 H   0  0  0  0  0  0  0  0  0  0  0  0
    0.8056   -1.3883    4.5092 H   0  0  0  0  0  0  0  0  0  0  0  0
    3.7181   -0.4400    4.5841 H   0  0  0  0  0  0  0  0  0  0  0  0
  1  3  1  0  0  0  0
  1  4  2  0  0  0  0
  1 15  1  0  0  0  0
  2  5  1  0  0  0  0
  2  6  2  0  0  0  0
  2 16  1  0  0  0  0
  3  7  2  0  0  0  0
  3 17  1  0  0  0  0
  4  8  1  0  0  0  0
  4 18  1  0  0  0  0
  5  9  2  0  0  0  0
  5 19  1  0  0  0  0
  6 10  1  0  0  0  0
  6 20  1  0  0  0  0
  7 11  1  0  0  0  0
  7 21  1  0  0  0  0
  8 11  2  0  0  0  0
  8 22  1  0  0  0  0
  9 12  1  0  0  0  0
  9 23  1  0  0  0  0
 10 12  2  0  0  0  0
 10 24  1  0  0  0  0
 11 13  1  0  0  0  0
 12 14  1  0  0  0  0
 13 14  2  0  0  0  0
 13 25  1  0  0  0  0
 14 26  1  0  0  0  0
M  END
$$$$
