23
0 1 C10H12O
C                     0.555103359089    -4.756057393143     0.905131810878
C                     1.474147106542    -3.724672461886     1.126186038987
C                    -0.735209865220    -4.446491677710     0.461389763445
C                     1.110508328021    -2.393899162983     0.898047255175
C                    -1.098079934465    -3.115037211318     0.238957351500
C                    -0.177380248643    -2.079099551554     0.447136830368
C                    -0.146973868995     1.232088898298    -1.283071894565
C                    -0.375646216897    -0.282009071484    -1.358436482100
C                     0.673738386133     1.350864093802     0.005386277865
C                    -0.568348749340    -0.654191426655     0.125520717952
O                     0.229348885090     0.287079695143     0.865538576181
H                     0.838118348825    -5.790097285843     1.085138863444
H                     2.474688007431    -3.957272886931     1.482925410327
H                    -1.459688699246    -5.240177746710     0.296231883794
H                     1.813194930122    -1.587941410967     1.085814416363
H                    -2.106839401945    -2.879843659187    -0.096357634869
H                     0.375941630075     1.636548745523    -2.154293093140
H                    -1.101330151477     1.759732759790    -1.179859689700
H                    -1.233834648624    -0.571645782660    -1.970367372202
H                     0.511279035086    -0.789510067041    -1.752350806495
H                     1.747051779368     1.225593877758    -0.196438407132
H                     0.528137948962     2.300942121413     0.528957094117
H                    -1.621619534554    -0.502638989430     0.404329992429
