24
0 1 C12H9NO2
C                    -5.846428480383    -7.087227725528    -2.359405587897
C                    -5.985451736960    -5.893506894975    -1.644348796441
C                    -4.592096189546    -7.703101186937    -2.460075831821
C                    -1.752220655360    -2.822741665122     2.268704524028
C                    -4.877817851921    -5.324319807222    -1.011482221815
C                    -3.481014328680    -7.126901331661    -1.847250261809
C                    -1.596993325829    -3.555566893786     1.055158815417
C                    -2.769336471301    -3.101090116209     3.140890476159
C                    -3.617610625108    -5.941385287924    -1.105045589341
C                    -2.499547911397    -4.544621325971     0.764766888985
C                    -3.734740878544    -4.157211949481     2.874035066158
C                    -2.387508787236    -5.344384899983    -0.502420523911
N                    -3.514050814316    -4.817562258020     1.650140016583
O                    -4.673551680861    -4.493003682183     3.598575300615
O                    -1.285908448459    -5.498830132056    -1.019235747473
H                    -6.711646131752    -7.534665054467    -2.841442094525
H                    -6.953831533030    -5.405326085295    -1.579458943701
H                    -4.483804412635    -8.627986833833    -3.019995862425
H                    -1.046826301097    -2.028068246700     2.499948069912
H                    -4.992736350996    -4.387818350128    -0.473665150702
H                    -2.497807288798    -7.579923390502    -1.930771253488
H                    -0.794992464655    -3.355744393100     0.355306036655
H                    -2.901291492000    -2.554531524419     4.068668663898
H                    -4.164771775113    -5.574303529009     1.458846958224
