26
0 1 C14H12
C                     1.869949334136    -1.048812276710    -0.181066359506
C                     2.653668858383    -0.779402570647     9.274401297571
C                     0.715166272929    -1.423331547236     0.511601251089
C                     3.012698154142    -0.676112899530     0.540030508258
C                     3.808463254566    -0.404906912008     8.581740052978
C                     1.510918800103    -1.152079214374     8.553294904617
C                     0.705883996644    -1.424273413878     1.907936399581
C                     3.002004048934    -0.677516499747     1.933141935642
C                     3.817748705915    -0.403968262764     7.185405063239
C                     1.521615985122    -1.150679630612     7.160183593653
C                     1.845203414942    -1.052635682601     2.648686041099
C                     2.678427356120    -0.775582345111     6.444646229913
C                     1.770079232613    -1.074865940962     4.112920182080
C                     2.753561465813    -0.753357188018     4.980412882697
H                     1.882736377547    -1.046277189781    -1.267777286732
H                     2.640875189674    -0.781938567760    10.361112150713
H                    -0.178256079260    -1.714699525157    -0.034820569560
H                     3.915516788554    -0.383318767858     0.009735246686
H                     4.701889173410    -0.113556719733     9.128165530241
H                     0.608092259783    -1.444856639921     9.083585599390
H                    -0.197592674922    -1.717303119368     2.438606614958
H                     3.901191913836    -0.384339249067     2.466977345127
H                     4.721233246346    -0.110955369233     6.654739139489
H                     0.622424923990    -1.443841646280     6.626345083188
H                     0.805577977407    -1.388251093456     4.509198939045
H                     3.718062043672    -0.439969262635     4.584135305798
