
  -OEChem-12122420533D

 24 25  0     0  0  0  0  0  0999 V2000
   -5.8464   -7.0872   -2.3594 C   0  0  0  0  0  0  0  0  0  0  0  0
   -5.9855   -5.8935   -1.6443 C   0  0  0  0  0  0  0  0  0  0  0  0
   -4.5921   -7.7031   -2.4601 C   0  0  0  0  0  0  0  0  0  0  0  0
   -1.7522   -2.8227    2.2687 C   0  0  0  0  0  0  0  0  0  0  0  0
   -4.8778   -5.3243   -1.0115 C   0  0  0  0  0  0  0  0  0  0  0  0
   -3.4810   -7.1269   -1.8473 C   0  0  0  0  0  0  0  0  0  0  0  0
   -1.5970   -3.5556    1.0552 C   0  0  0  0  0  0  0  0  0  0  0  0
   -2.7693   -3.1011    3.1409 C   0  0  0  0  0  0  0  0  0  0  0  0
   -3.6176   -5.9414   -1.1050 C   0  0  0  0  0  0  0  0  0  0  0  0
   -2.4995   -4.5446    0.7648 C   0  0  0  0  0  0  0  0  0  0  0  0
   -3.7347   -4.1572    2.8740 C   0  0  0  0  0  0  0  0  0  0  0  0
   -2.3875   -5.3444   -0.5024 C   0  0  0  0  0  0  0  0  0  0  0  0
   -3.5141   -4.8176    1.6501 N   0  0  0  0  0  0  0  0  0  0  0  0
   -4.6736   -4.4930    3.5986 O   0  0  0  0  0  0  0  0  0  0  0  0
   -1.2859   -5.4988   -1.0192 O   0  0  0  0  0  0  0  0  0  0  0  0
   -6.7116   -7.5347   -2.8414 H   0  0  0  0  0  0  0  0  0  0  0  0
   -6.9538   -5.4053   -1.5795 H   0  0  0  0  0  0  0  0  0  0  0  0
   -4.4838   -8.6280   -3.0200 H   0  0  0  0  0  0  0  0  0  0  0  0
   -1.0468   -2.0281    2.4999 H   0  0  0  0  0  0  0  0  0  0  0  0
   -4.9927   -4.3878   -0.4737 H   0  0  0  0  0  0  0  0  0  0  0  0
   -2.4978   -7.5799   -1.9308 H   0  0  0  0  0  0  0  0  0  0  0  0
   -0.7950   -3.3557    0.3553 H   0  0  0  0  0  0  0  0  0  0  0  0
   -2.9013   -2.5545    4.0687 H   0  0  0  0  0  0  0  0  0  0  0  0
   -4.1648   -5.5743    1.4588 H   0  0  0  0  0  0  0  0  0  0  0  0
  1  2  1  0  0  0  0
  1  3  2  0  0  0  0
  1 16  1  0  0  0  0
  2  5  2  0  0  0  0
  2 17  1  0  0  0  0
  3  6  1  0  0  0  0
  3 18  1  0  0  0  0
  4  7  1  0  0  0  0
  4  8  2  0  0  0  0
  4 19  1  0  0  0  0
  5  9  1  0  0  0  0
  5 20  1  0  0  0  0
  6  9  2  0  0  0  0
  6 21  1  0  0  0  0
  7 10  2  0  0  0  0
  7 22  1  0  0  0  0
  8 11  1  0  0  0  0
  8 23  1  0  0  0  0
  9 12  1  0  0  0  0
 10 12  1  0  0  0  0
 10 13  1  0  0  0  0
 11 13  1  0  0  0  0
 11 14  2  0  0  0  0
 12 15  2  0  0  0  0
 13 24  1  0  0  0  0
M  END
$$$$
