18
0 1 C8FH9
C                     1.871468702452    -1.039721022814    -0.144358839265
C                     2.934012529809    -1.561036946179     0.602371362001
C                     0.745514083242    -0.538894449455     0.515993210267
C                     2.870634213561    -1.580734133776     1.998175713999
C                     0.686083878787    -0.560528224556     1.913438170372
C                     1.745134411581    -1.080811231048     2.671252305821
C                     1.691173655773    -1.067955473977     4.182958071813
C                     2.492431769106     0.067424431659     4.811411271460
F                     3.868340576722    -0.126547120653     4.592599622285
H                     1.919923919727    -1.026812580860    -1.230223590964
H                     3.813319762542    -1.952097439044     0.096541878499
H                    -0.087246748499    -0.135673866465    -0.054876978522
H                     3.702453861300    -1.979220882652     2.572727214015
H                    -0.196452784876    -0.173108111061     2.419254265690
H                     2.062504617729    -2.014189357242     4.592293366266
H                     0.653657000006    -0.959778570855     4.521055657168
H                     2.344347183604     0.099702437015     5.896053496800
H                     2.229653881183     1.035510820133     4.373535391536
