29
0 1 C12H15NO
C                    -3.829532529877     1.913448796250     3.343951488457
C                    -4.435196855825     0.816462036067     2.717595444555
C                    -4.487948896799     2.559982229609     4.393403339327
C                    -5.689330811043     0.368806093439     3.138027119440
C                    -5.744201608776     2.108057282129     4.814852600821
C                    -6.355752935939     1.012348082734     4.193798674440
C                    -7.838794527123    -1.940607715899     4.649447076820
C                    -7.689702610467    -3.271998014264     5.377269580553
C                    -6.767414059485    -3.243348984507     6.597904030659
C                    -7.122361176405    -2.038347588102     7.467607347907
C                    -6.934983923570    -0.752288091300     6.670401657778
C                    -7.701592502709     0.496263277184     4.664539300828
N                    -7.602265432256    -0.791266940673     5.363579030556
O                    -8.211508128587    -1.917826758691     3.472150007139
H                    -2.854240986213     2.261902353159     3.013524533149
H                    -3.929983578018     0.314110564490     1.896286669123
H                    -4.025921416606     3.413285429621     4.883722353028
H                    -6.164619615013    -0.479096577966     2.651989477462
H                    -6.253117994618     2.614181676090     5.633216552701
H                    -8.702095715598    -3.570181201980     5.678148587484
H                    -7.363347335122    -3.998007615082     4.629036632428
H                    -6.857073385097    -4.178059081491     7.161763753846
H                    -5.721475664830    -3.164512867467     6.274839475550
H                    -8.163718431031    -2.118195327924     7.803459322142
H                    -6.492727138980    -1.991322228817     8.362501881680
H                    -7.342506304525     0.100837818472     7.225273665882
H                    -5.863573250497    -0.553546980119     6.525989736747
H                    -8.161559462096     1.216474127669     5.350153529549
H                    -8.372197530035     0.346609776505     3.817946305977
