
  -OEChem-12102412493D

 17 17  0     0  0  0  0  0  0999 V2000
    4.2496   -2.3125    0.3091 C   0  0  0  0  0  0  0  0  0  0  0  0
    5.1757   -3.0821    1.0209 C   0  0  0  0  0  0  0  0  0  0  0  0
    4.4086   -2.1519   -1.0651 C   0  0  0  0  0  0  0  0  0  0  0  0
    6.2442   -3.6783    0.3519 C   0  0  0  0  0  0  0  0  0  0  0  0
    5.4739   -2.7403   -1.7665 C   0  0  0  0  0  0  0  0  0  0  0  0
    6.3953   -3.5113   -1.0303 C   0  0  0  0  0  0  0  0  0  0  0  0
    5.5085   -2.4730   -3.2531 C   0  0  0  0  0  0  0  0  0  0  0  0
    6.5172   -3.0320   -3.9818 N   0  0  0  0  0  0  0  0  0  0  0  0
    4.6450   -1.7707   -3.7840 O   0  0  0  0  0  0  0  0  0  0  0  0
    7.4589   -4.1072   -1.6808 O   0  0  0  0  0  0  0  0  0  0  0  0
    3.4144   -1.8443    0.8216 H   0  0  0  0  0  0  0  0  0  0  0  0
    5.0711   -3.2206    2.0938 H   0  0  0  0  0  0  0  0  0  0  0  0
    3.7091   -1.5612   -1.6477 H   0  0  0  0  0  0  0  0  0  0  0  0
    6.9674   -4.2778    0.9034 H   0  0  0  0  0  0  0  0  0  0  0  0
    6.5255   -2.8369   -4.9741 H   0  0  0  0  0  0  0  0  0  0  0  0
    7.2378   -3.6027   -3.5620 H   0  0  0  0  0  0  0  0  0  0  0  0
    7.9914   -4.5982   -1.0352 H   0  0  0  0  0  0  0  0  0  0  0  0
  1  2  1  0  0  0  0
  1  3  2  0  0  0  0
  1 11  1  0  0  0  0
  2  4  2  0  0  0  0
  2 12  1  0  0  0  0
  3  5  1  0  0  0  0
  3 13  1  0  0  0  0
  4  6  1  0  0  0  0
  4 14  1  0  0  0  0
  5  6  2  0  0  0  0
  5  7  1  0  0  0  0
  6 10  1  0  0  0  0
  7  8  1  0  0  0  0
  7  9  2  0  0  0  0
  8 15  1  0  0  0  0
  8 16  1  0  0  0  0
 10 17  1  0  0  0  0
M  END
$$$$
