16
-1 1 C7H5N4
C                     1.885624478593    -1.036265474462    -0.144677208150
C                     2.944614166591    -1.585385522081     0.591338551627
C                     0.783318212125    -0.508758892121     0.541846575652
C                     2.904322195720    -1.607682610232     1.986971942344
C                     0.739486511391    -0.529304239659     1.937401193050
C                     1.799846890076    -1.079497553914     2.686456281473
C                     1.755309801412    -1.101706354139     4.148759200808
N                     2.732476981948    -1.611504978936     4.928875917267
N                     0.732039199418    -0.614857557583     4.883102321382
N                     2.291201254865    -1.430347061189     6.184818367354
N                     1.096001860851    -0.834578783006     6.157536482796
H                     1.918738303479    -1.019733036465    -1.232427492336
H                     3.807633340655    -1.998914762892     0.071454343664
H                    -0.047027687665    -0.078768477609    -0.016489855107
H                     3.720789042008    -2.031346092053     2.564369854825
H                    -0.110828350827    -0.122690778773     2.476950345842
