26
0 1 C13H11NO
C                     4.289379445414     1.892746145494     2.295903433599
C                     3.374561236198     2.404193093800     3.222054925300
C                     4.535211597354     0.514907984227     2.246443795643
C                    -1.357793044946     0.256092559382     4.859711884321
C                    -1.845075332890    -0.304314885767     6.052556635544
C                     2.689497409985     1.540519893746     4.080755722278
C                     3.870693912446    -0.345069426313     3.120999604412
C                    -0.015298618996     0.095491477611     4.544999888764
C                    -1.006844708536    -1.027930711139     6.888550713584
C                     2.928753079846     0.157691871846     4.032274326606
C                     0.871242894841    -0.620746511464     5.379633012978
C                     0.356509216295    -1.225379433985     6.568173013427
C                     2.287021072407    -0.800907411720     4.992452526799
N                     1.160038552925    -1.937088512820     7.428740361304
O                     2.979295615462    -1.727857849882     5.441658223098
H                     4.813976426238     2.564376474832     1.621058130451
H                     3.195689692091     3.474842984673     3.277533742356
H                     5.250223530458     0.115298522397     1.531971215828
H                    -2.019337748784     0.800016679472     4.192363043126
H                    -2.891335932966    -0.183553677608     6.323031601791
H                     1.988344088268     1.943364395785     4.805341831108
H                     4.071722201616    -1.412143592688     3.112689479580
H                     0.363382598541     0.507729182062     3.616073598149
H                    -1.397826428081    -1.467224733070     7.804021292465
H                     2.019459327248    -2.303924902845     7.031922600308
H                     0.694026341877    -2.509513995765     8.119613807150
