
  -OEChem-12102412493D

 30 31  0     0  0  0  0  0  0999 V2000
   -2.1636   -2.0563    3.2885 C   0  0  0  0  0  0  0  0  0  0  0  0
   -1.2363   -1.0586    3.5992 C   0  0  0  0  0  0  0  0  0  0  0  0
   -3.0523   -1.8730    2.2213 C   0  0  0  0  0  0  0  0  0  0  0  0
   -1.1940    0.1180    2.8418 C   0  0  0  0  0  0  0  0  0  0  0  0
   -3.0108   -0.6971    1.4700 C   0  0  0  0  0  0  0  0  0  0  0  0
   -2.0800    0.3083    1.7748 C   0  0  0  0  0  0  0  0  0  0  0  0
   -1.8931    2.4850   -1.3051 C   0  0  0  0  0  0  0  0  0  0  0  0
   -0.4914    0.6391   -0.6904 C   0  0  0  0  0  0  0  0  0  0  0  0
   -1.8524    2.1033   -2.7794 C   0  0  0  0  0  0  0  0  0  0  0  0
   -0.3840    0.1601   -2.1292 C   0  0  0  0  0  0  0  0  0  0  0  0
   -2.0388    1.5754    0.9523 C   0  0  0  0  0  0  0  0  0  0  0  0
   -1.7746    1.2951   -0.4763 N   0  0  0  0  0  0  0  0  0  0  0  0
   -0.5645    1.3485   -3.0614 N   0  3  0  0  0  0  0  0  0  0  0  0
   -2.1997   -2.9691    3.8765 H   0  0  0  0  0  0  0  0  0  0  0  0
   -0.5482   -1.1928    4.4292 H   0  0  0  0  0  0  0  0  0  0  0  0
   -3.7812   -2.6430    1.9834 H   0  0  0  0  0  0  0  0  0  0  0  0
   -0.4717    0.8928    3.0903 H   0  0  0  0  0  0  0  0  0  0  0  0
   -3.7037   -0.5534    0.6443 H   0  0  0  0  0  0  0  0  0  0  0  0
   -1.1074    3.2377   -1.0925 H   0  0  0  0  0  0  0  0  0  0  0  0
   -2.8558    2.9684   -1.1171 H   0  0  0  0  0  0  0  0  0  0  0  0
   -0.4197   -0.2358   -0.0402 H   0  0  0  0  0  0  0  0  0  0  0  0
    0.3679    1.2961   -0.4463 H   0  0  0  0  0  0  0  0  0  0  0  0
   -2.6687    1.4248   -3.0320 H   0  0  0  0  0  0  0  0  0  0  0  0
   -1.8732    2.9745   -3.4374 H   0  0  0  0  0  0  0  0  0  0  0  0
    0.5885   -0.2841   -2.3509 H   0  0  0  0  0  0  0  0  0  0  0  0
   -1.1812   -0.5453   -2.3690 H   0  0  0  0  0  0  0  0  0  0  0  0
   -3.0065    2.0865    0.9972 H   0  0  0  0  0  0  0  0  0  0  0  0
   -1.2860    2.2674    1.3649 H   0  0  0  0  0  0  0  0  0  0  0  0
    0.2294    1.9887   -2.9373 H   0  0  0  0  0  0  0  0  0  0  0  0
   -0.5412    1.0405   -4.0399 H   0  0  0  0  0  0  0  0  0  0  0  0
  1  2  1  0  0  0  0
  1  3  2  0  0  0  0
  1 14  1  0  0  0  0
  2  4  2  0  0  0  0
  2 15  1  0  0  0  0
  3  5  1  0  0  0  0
  3 16  1  0  0  0  0
  4  6  1  0  0  0  0
  4 17  1  0  0  0  0
  5  6  2  0  0  0  0
  5 18  1  0  0  0  0
  6 11  1  0  0  0  0
  7  9  1  0  0  0  0
  7 12  1  0  0  0  0
  7 19  1  0  0  0  0
  7 20  1  0  0  0  0
  8 10  1  0  0  0  0
  8 12  1  0  0  0  0
  8 21  1  0  0  0  0
  8 22  1  0  0  0  0
  9 13  1  0  0  0  0
  9 23  1  0  0  0  0
  9 24  1  0  0  0  0
 10 13  1  0  0  0  0
 10 25  1  0  0  0  0
 10 26  1  0  0  0  0
 11 12  1  0  0  0  0
 11 27  1  0  0  0  0
 11 28  1  0  0  0  0
 13 29  1  0  0  0  0
 13 30  1  0  0  0  0
M  CHG  1  13   1
M  END
$$$$
