21
0 1 C10H9NO
C                     1.815917224073    -1.021288320038    -0.131276679016
C                     2.784558994614    -1.800143181688     0.507394419267
C                     0.897495762561    -0.293990511385     0.635664239287
C                     2.833653643172    -1.851856887014     1.905339864594
C                     0.948598665093    -0.347409463814     2.030122263918
C                     1.985327502995     2.094944535437     5.707254127837
C                     3.285814582521     1.945267285284     5.341858607979
C                     1.916282873595    -1.130345562367     2.677421586038
C                     2.163538094183     0.159972546248     4.811904099488
C                     1.959043408527    -1.185844345279     4.198005739100
N                     1.279425784207     0.942356083249     5.360941235622
O                     3.418140656988     0.703309242591     4.763322800450
H                     1.776535686718    -0.979074853798    -1.216714241829
H                     3.503299727306    -2.366293040965    -0.079678609493
H                     0.142149640830     0.315415266779     0.145808657820
H                     3.592725442347    -2.456525841212     2.396900936586
H                     0.239775057293     0.224832071842     2.624478951308
H                     1.506289287984     2.935000863501     6.191560047975
H                     4.178655146701     2.548402334668     5.409082163969
H                     1.014913618520    -1.572352543562     4.591564207696
H                     2.757971544018    -1.858197419560     4.524288321372
