
  -OEChem-12122420533D

 25 26  0     0  0  0  0  0  0999 V2000
    1.8760   -1.0127   -0.1779 C   0  0  0  0  0  0  0  0  0  0  0  0
    1.7741    0.1868    0.5338 C   0  0  0  0  0  0  0  0  0  0  0  0
    1.9430   -2.2286    0.5127 C   0  0  0  0  0  0  0  0  0  0  0  0
    1.2852   -0.3481    8.4729 C   0  0  0  0  0  0  0  0  0  0  0  0
    0.5880    0.8286    8.7659 C   0  0  0  0  0  0  0  0  0  0  0  0
    1.7241    0.1710    1.9300 C   0  0  0  0  0  0  0  0  0  0  0  0
    1.9041   -2.2447    1.9069 C   0  0  0  0  0  0  0  0  0  0  0  0
    1.5091   -0.7114    7.1464 C   0  0  0  0  0  0  0  0  0  0  0  0
    0.1387    1.6028    7.6946 C   0  0  0  0  0  0  0  0  0  0  0  0
    1.7805   -1.0468    2.6269 C   0  0  0  0  0  0  0  0  0  0  0  0
    1.0132    0.1463    6.1490 C   0  0  0  0  0  0  0  0  0  0  0  0
    1.7509   -1.1478    4.1253 C   0  0  0  0  0  0  0  0  0  0  0  0
    0.3421    1.2785    6.4122 N   0  0  0  0  0  0  0  0  0  0  0  0
    1.1680   -0.0783    4.7715 N   0  0  0  0  0  0  0  0  0  0  0  0
    2.2075   -2.1268    4.7145 O   0  0  0  0  0  0  0  0  0  0  0  0
    1.9113   -0.9993   -1.2641 H   0  0  0  0  0  0  0  0  0  0  0  0
    1.7417    1.1346    0.0034 H   0  0  0  0  0  0  0  0  0  0  0  0
    2.0291   -3.1622   -0.0369 H   0  0  0  0  0  0  0  0  0  0  0  0
    1.6537   -0.9853    9.2728 H   0  0  0  0  0  0  0  0  0  0  0  0
    0.3962    1.1386    9.7886 H   0  0  0  0  0  0  0  0  0  0  0  0
    1.6806    1.1181    2.4619 H   0  0  0  0  0  0  0  0  0  0  0  0
    1.9700   -3.1760    2.4604 H   0  0  0  0  0  0  0  0  0  0  0  0
    2.0363   -1.6146    6.8726 H   0  0  0  0  0  0  0  0  0  0  0  0
   -0.4100    2.5270    7.8686 H   0  0  0  0  0  0  0  0  0  0  0  0
    0.7148    0.6378    4.2165 H   0  0  0  0  0  0  0  0  0  0  0  0
  1  2  1  0  0  0  0
  1  3  2  0  0  0  0
  1 16  1  0  0  0  0
  2  6  2  0  0  0  0
  2 17  1  0  0  0  0
  3  7  1  0  0  0  0
  3 18  1  0  0  0  0
  4  5  1  0  0  0  0
  4  8  2  0  0  0  0
  4 19  1  0  0  0  0
  5  9  2  0  0  0  0
  5 20  1  0  0  0  0
  6 10  1  0  0  0  0
  6 21  1  0  0  0  0
  7 10  2  0  0  0  0
  7 22  1  0  0  0  0
  8 11  1  0  0  0  0
  8 23  1  0  0  0  0
  9 13  1  0  0  0  0
  9 24  1  0  0  0  0
 10 12  1  0  0  0  0
 11 13  2  0  0  0  0
 11 14  1  0  0  0  0
 12 14  1  0  0  0  0
 12 15  2  0  0  0  0
 14 25  1  0  0  0  0
M  END
$$$$
