
  -OEChem-12122420533D

 22 23  0     0  0  0  0  0  0999 V2000
    5.8098    4.1824    9.8667 C   0  0  0  0  0  0  0  0  0  0  0  0
    7.0188    4.8345   10.1242 C   0  0  0  0  0  0  0  0  0  0  0  0
    5.6306    3.5142    8.6491 C   0  0  0  0  0  0  0  0  0  0  0  0
    8.0422    4.8176    9.1685 C   0  0  0  0  0  0  0  0  0  0  0  0
    6.6553    3.4979    7.7001 C   0  0  0  0  0  0  0  0  0  0  0  0
   10.9482    1.0679    6.4350 C   0  0  0  0  0  0  0  0  0  0  0  0
   10.5479    0.8539    7.7350 C   0  0  0  0  0  0  0  0  0  0  0  0
    7.8729    4.1520    7.9466 C   0  0  0  0  0  0  0  0  0  0  0  0
    9.7250    2.7692    6.9529 C   0  0  0  0  0  0  0  0  0  0  0  0
    8.9980    4.0865    6.9344 C   0  0  0  0  0  0  0  0  0  0  0  0
   10.4306    2.2575    5.9582 N   0  0  0  0  0  0  0  0  0  0  0  0
    9.7688    1.9532    8.0545 N   0  0  0  0  0  0  0  0  0  0  0  0
    5.0124    4.1965   10.6052 H   0  0  0  0  0  0  0  0  0  0  0  0
    7.1659    5.3594   11.0647 H   0  0  0  0  0  0  0  0  0  0  0  0
    4.6921    3.0070    8.4403 H   0  0  0  0  0  0  0  0  0  0  0  0
    8.9795    5.3312    9.3725 H   0  0  0  0  0  0  0  0  0  0  0  0
    6.5149    2.9705    6.7591 H   0  0  0  0  0  0  0  0  0  0  0  0
   11.5715    0.4348    5.8166 H   0  0  0  0  0  0  0  0  0  0  0  0
   10.7292    0.0507    8.4348 H   0  0  0  0  0  0  0  0  0  0  0  0
    8.6208    4.2357    5.9188 H   0  0  0  0  0  0  0  0  0  0  0  0
    9.7144    4.8950    7.1224 H   0  0  0  0  0  0  0  0  0  0  0  0
    9.2709    2.1127    8.9211 H   0  0  0  0  0  0  0  0  0  0  0  0
  1  2  1  0  0  0  0
  1  3  2  0  0  0  0
  1 13  1  0  0  0  0
  2  4  2  0  0  0  0
  2 14  1  0  0  0  0
  3  5  1  0  0  0  0
  3 15  1  0  0  0  0
  4  8  1  0  0  0  0
  4 16  1  0  0  0  0
  5  8  2  0  0  0  0
  5 17  1  0  0  0  0
  6  7  2  0  0  0  0
  6 11  1  0  0  0  0
  6 18  1  0  0  0  0
  7 12  1  0  0  0  0
  7 19  1  0  0  0  0
  8 10  1  0  0  0  0
  9 10  1  0  0  0  0
  9 11  2  0  0  0  0
  9 12  1  0  0  0  0
 10 20  1  0  0  0  0
 10 21  1  0  0  0  0
 12 22  1  0  0  0  0
M  END
$$$$
