26
0 1 C13H11NO
C                     4.937295153148    -8.530697042723    -4.794305385287
C                     7.621793478942    -7.305742691500     4.026481931691
C                     5.202049237489    -7.372099222381    -4.057453610185
C                     5.247868877083    -9.784887032517    -4.255271793976
C                     6.705150100484    -6.446506261350     3.410695556976
C                     8.135955863062    -8.384654271614     3.301645098698
C                     5.759245428945    -7.467488055488    -2.779297099852
C                     5.815035783208    -9.880138353634    -2.984333504218
C                     6.314004420672    -6.667323375734     2.090994201100
C                     7.753059230448    -8.621094835133     1.978348708649
C                     6.060814551752    -8.723787012261    -2.229173293024
C                     6.833554797191    -7.753841767124     1.364278471504
C                     6.677708885960    -8.905929278997    -0.870079197112
N                     6.396132252800    -7.900299931760     0.029738081748
O                     7.363899558000    -9.891329901295    -0.603289928970
H                     4.501177967225    -8.456202200268    -5.787051325943
H                     7.928465600469    -7.136245780977     5.054859395398
H                     4.985095026782    -6.394962003858    -4.480741444980
H                     5.051346865243   -10.686838864075    -4.828842241777
H                     6.292644129646    -5.602091698571     3.956630968516
H                     8.847651770676    -9.060263796613     3.769322360548
H                     5.995551359198    -6.553167061179    -2.240121001118
H                     6.078512079213   -10.842660353778    -2.557227518262
H                     5.600949554230    -5.993372138651     1.618693216330
H                     8.147730214753    -9.461629687566     1.424988025367
H                     5.716080020528    -7.214874259463    -0.270582637934
