
  -OEChem-12122420533D

 34 36  0     0  0  0  0  0  0999 V2000
    3.8712   -2.8627   -7.3397 C   0  0  0  0  0  0  0  0  0  0  0  0
    2.5475   -2.4530   -7.5098 C   0  0  0  0  0  0  0  0  0  0  0  0
    4.4125   -2.8658   -6.0532 C   0  0  0  0  0  0  0  0  0  0  0  0
    1.7955   -2.0340   -6.4112 C   0  0  0  0  0  0  0  0  0  0  0  0
    4.8151   -2.9708   -1.5427 C   0  0  0  0  0  0  0  0  0  0  0  0
    5.9728   -2.4871   -2.1134 C   0  0  0  0  0  0  0  0  0  0  0  0
    3.6699   -2.4648   -4.9304 C   0  0  0  0  0  0  0  0  0  0  0  0
    2.3283   -2.0172   -5.1064 C   0  0  0  0  0  0  0  0  0  0  0  0
    4.3140   -2.5718   -3.6095 C   0  0  0  0  0  0  0  0  0  0  0  0
   -0.0670   -0.4872   -1.8726 C   0  0  0  0  0  0  0  0  0  0  0  0
    1.4650   -0.4854   -1.8118 C   0  0  0  0  0  0  0  0  0  0  0  0
   -0.5577   -1.6303   -2.7682 C   0  0  0  0  0  0  0  0  0  0  0  0
    2.0575   -0.4651   -3.2200 C   0  0  0  0  0  0  0  0  0  0  0  0
    0.1050   -1.5849   -4.1500 C   0  0  0  0  0  0  0  0  0  0  0  0
    3.7980   -3.0172   -2.4703 N   0  0  0  0  0  0  0  0  0  0  0  0
    5.6418   -2.2415   -3.4326 N   0  0  0  0  0  0  0  0  0  0  0  0
    1.5582   -1.5965   -4.0134 N   0  0  0  0  0  0  0  0  0  0  0  0
    4.4653   -3.1960   -8.1858 H   0  0  0  0  0  0  0  0  0  0  0  0
    2.0983   -2.4451   -8.4999 H   0  0  0  0  0  0  0  0  0  0  0  0
    5.4198   -3.2478   -5.9042 H   0  0  0  0  0  0  0  0  0  0  0  0
    0.7824   -1.6844   -6.5746 H   0  0  0  0  0  0  0  0  0  0  0  0
    4.6610   -3.2912   -0.5201 H   0  0  0  0  0  0  0  0  0  0  0  0
    6.9614   -2.2994   -1.7196 H   0  0  0  0  0  0  0  0  0  0  0  0
   -0.4177    0.4717   -2.2801 H   0  0  0  0  0  0  0  0  0  0  0  0
   -0.4940   -0.5792   -0.8674 H   0  0  0  0  0  0  0  0  0  0  0  0
    1.8296    0.3843   -1.2522 H   0  0  0  0  0  0  0  0  0  0  0  0
    1.8256   -1.3878   -1.3075 H   0  0  0  0  0  0  0  0  0  0  0  0
   -0.3142   -2.5916   -2.3014 H   0  0  0  0  0  0  0  0  0  0  0  0
   -1.6463   -1.5875   -2.8926 H   0  0  0  0  0  0  0  0  0  0  0  0
    1.7911    0.4828   -3.7254 H   0  0  0  0  0  0  0  0  0  0  0  0
    3.1440   -0.5077   -3.1689 H   0  0  0  0  0  0  0  0  0  0  0  0
   -0.1993   -2.4621   -4.7269 H   0  0  0  0  0  0  0  0  0  0  0  0
   -0.2461   -0.6882   -4.6968 H   0  0  0  0  0  0  0  0  0  0  0  0
    6.2406   -1.8219   -4.1313 H   0  0  0  0  0  0  0  0  0  0  0  0
  1  2  1  0  0  0  0
  1  3  2  0  0  0  0
  1 18  1  0  0  0  0
  2  4  2  0  0  0  0
  2 19  1  0  0  0  0
  3  7  1  0  0  0  0
  3 20  1  0  0  0  0
  4  8  1  0  0  0  0
  4 21  1  0  0  0  0
  5  6  2  0  0  0  0
  5 15  1  0  0  0  0
  5 22  1  0  0  0  0
  6 16  1  0  0  0  0
  6 23  1  0  0  0  0
  7  8  2  0  0  0  0
  7  9  1  0  0  0  0
  8 17  1  0  0  0  0
  9 15  2  0  0  0  0
  9 16  1  0  0  0  0
 10 11  1  0  0  0  0
 10 12  1  0  0  0  0
 10 24  1  0  0  0  0
 10 25  1  0  0  0  0
 11 13  1  0  0  0  0
 11 26  1  0  0  0  0
 11 27  1  0  0  0  0
 12 14  1  0  0  0  0
 12 28  1  0  0  0  0
 12 29  1  0  0  0  0
 13 17  1  0  0  0  0
 13 30  1  0  0  0  0
 13 31  1  0  0  0  0
 14 17  1  0  0  0  0
 14 32  1  0  0  0  0
 14 33  1  0  0  0  0
 16 34  1  0  0  0  0
M  END
$$$$
