
  -OEChem-12122420533D

 18 18  0     0  0  0  0  0  0999 V2000
    1.8715   -1.0397   -0.1444 C   0  0  0  0  0  0  0  0  0  0  0  0
    2.9340   -1.5610    0.6024 C   0  0  0  0  0  0  0  0  0  0  0  0
    0.7455   -0.5389    0.5160 C   0  0  0  0  0  0  0  0  0  0  0  0
    2.8706   -1.5807    1.9982 C   0  0  0  0  0  0  0  0  0  0  0  0
    0.6861   -0.5605    1.9134 C   0  0  0  0  0  0  0  0  0  0  0  0
    1.7451   -1.0808    2.6713 C   0  0  0  0  0  0  0  0  0  0  0  0
    1.6912   -1.0680    4.1830 C   0  0  0  0  0  0  0  0  0  0  0  0
    2.4924    0.0674    4.8114 C   0  0  0  0  0  0  0  0  0  0  0  0
    3.8683   -0.1265    4.5926 F   0  0  0  0  0  0  0  0  0  0  0  0
    1.9199   -1.0268   -1.2302 H   0  0  0  0  0  0  0  0  0  0  0  0
    3.8133   -1.9521    0.0965 H   0  0  0  0  0  0  0  0  0  0  0  0
   -0.0872   -0.1357   -0.0549 H   0  0  0  0  0  0  0  0  0  0  0  0
    3.7025   -1.9792    2.5727 H   0  0  0  0  0  0  0  0  0  0  0  0
   -0.1965   -0.1731    2.4193 H   0  0  0  0  0  0  0  0  0  0  0  0
    2.0625   -2.0142    4.5923 H   0  0  0  0  0  0  0  0  0  0  0  0
    0.6537   -0.9598    4.5211 H   0  0  0  0  0  0  0  0  0  0  0  0
    2.3443    0.0997    5.8961 H   0  0  0  0  0  0  0  0  0  0  0  0
    2.2297    1.0355    4.3735 H   0  0  0  0  0  0  0  0  0  0  0  0
  1  2  1  0  0  0  0
  1  3  2  0  0  0  0
  1 10  1  0  0  0  0
  2  4  2  0  0  0  0
  2 11  1  0  0  0  0
  3  5  1  0  0  0  0
  3 12  1  0  0  0  0
  4  6  1  0  0  0  0
  4 13  1  0  0  0  0
  5  6  2  0  0  0  0
  5 14  1  0  0  0  0
  6  7  1  0  0  0  0
  7  8  1  0  0  0  0
  7 15  1  0  0  0  0
  7 16  1  0  0  0  0
  8  9  1  0  0  0  0
  8 17  1  0  0  0  0
  8 18  1  0  0  0  0
M  END
$$$$
