24
0 1 C12H11N
C                     1.972054161604    -1.016041300448    -0.114078424961
C                     2.853496095205    -1.799309764623     0.641793598375
C                     0.995758774063    -0.256866422843     0.536131938037
C                     4.259370043926     1.395550214643     5.565851579393
C                     5.271463370168     0.498154191403     5.919963691717
C                     2.758351133415    -1.821064054542     2.034591271298
C                     0.902230776741    -0.281561689195     1.932885697453
C                     3.079750875852     0.891735329950     5.020480006171
C                     5.045439612415    -0.863343189270     5.708278133365
C                     1.778788140099    -1.062991278439     2.695867348908
C                     2.942599012147    -0.494204597914     4.847220799141
C                     1.696644654909    -1.079441947973     4.213295404418
N                     3.913048293286    -1.358595685064     5.187072247109
H                     2.046595486985    -0.999516805401    -1.198451410228
H                     3.615769607008    -2.393073545990     0.143122205041
H                     0.305433778061     0.353291152091    -0.041199859044
H                     4.388938824662     2.465092722826     5.711992967968
H                     6.209139013283     0.839902067616     6.348809469464
H                     3.449126628559    -2.421087372590     2.621720810892
H                     0.137227954097     0.310208829789     2.431790177472
H                     2.273090937428     1.556561297626     4.723047906129
H                     5.807915867883    -1.595393638996     5.971528682372
H                     0.815557492294    -0.517242031442     4.537383536423
H                     1.589845427613    -2.107357519352     4.571231324808
