16   
torsion grid (-165,)
C       -1.7007934891   -0.1330153531   -0.2242691559
C        0.2112219179    0.0850906076    1.7175342527
C        2.3644529319   -1.6418874248   -0.2682878316
C        0.6143635018    0.8714142744   -1.2832767350
N        0.9897429620   -1.6250557575   -0.2339660454
O        3.1051363276   -0.6947667498   -0.5005026294
S       -0.1071047860   -0.1060741280    0.1035030059
H       -2.0064255392    0.0302704590   -1.2504085208
H       -2.3301748172   -0.6623404042    0.4790759202
H        1.2426314252   -0.1123648791    1.9881225500
H       -0.3019243104    0.9322027439    2.1601429109
H        2.7660931393   -2.6610904106   -0.0928922698
H        1.6886189321    0.9055256830   -1.1101270292
H        0.3908185631    0.3632824941   -2.2240076862
H        0.1513392114    1.8578696353   -1.2358427370
H        0.5899848186   -2.4139230435    0.2737875531
16   
torsion grid (-150,)
C       -1.6931768355   -0.1518664046   -0.1965793921
C        0.2539149887    0.1082279002    1.7099449679
C        2.3606145741   -1.6335997216   -0.1867424453
C        0.5947776870    0.8579945351   -1.3104127452
N        0.9921808780   -1.6050432117   -0.2639866962
O        3.1030423631   -0.6593575042   -0.2114925675
S       -0.0956178957   -0.1018982789    0.1067137779
H       -2.0191113436    0.0082705795   -1.2167543697
H       -2.3082253497   -0.6703764443    0.5270204494
H        1.2923471877   -0.0804522446    1.9588820812
H       -0.2492108611    0.9647948792    2.1461510735
H        2.7548934937   -2.6687163086   -0.1311746296
H        1.6731626773    0.8871973033   -1.1579931457
H        0.3438175233    0.3455398162   -2.2414300597
H        0.1477719557    1.8519484473   -1.2612070793
H        0.5167997460   -2.4575255956    0.0276463328
16   
torsion grid (-135,)
C       -1.6861462390   -0.1713163242   -0.1779916005
C        0.2693315108    0.1436303300    1.7158864550
C        2.3610183963   -1.6371935509   -0.1430415829
C        0.5845413344    0.8421523187   -1.3214532033
N        0.9998508023   -1.5887264380   -0.2390459943
O        3.1009198774   -0.6659478373   -0.0323596284
S       -0.0892688696   -0.0962861982    0.1211087850
H       -2.0195324648   -0.0164587551   -1.1964564624
H       -2.2953048610   -0.6794204313    0.5577136668
H        1.3091431563   -0.0405491197    1.9621312790
H       -0.2328859046    1.0090557978    2.1354438775
H        2.7521138899   -2.6731133975   -0.2033546134
H        1.6658880067    0.8629691732   -1.1860763044
H        0.3121805145    0.3252010988   -2.2437417146
H        0.1537146301    1.8435442198   -1.2756386120
H        0.4824170092   -2.4624031392   -0.1745387945
16   
torsion grid (-120,)
C       -1.6834184411   -0.1814418115   -0.1644358977
C        0.2671912285    0.1795076055    1.7292663659
C        2.3633833146   -1.6376462187   -0.1268790573
C        0.5825559947    0.8177783563   -1.3232223530
N        1.0027764909   -1.5882544971   -0.1755968485
O        3.1014339952   -0.6789878345    0.0740865253
S       -0.0887487506   -0.0944643019    0.1418256231
H       -2.0158167115   -0.0331936811   -1.1842448619
H       -2.2950940806   -0.6772620853    0.5774709661
H        1.3025579143   -0.0155135270    1.9854718503
H       -0.2284601530    1.0593655959    2.1259457747
H        2.7551974267   -2.6601771500   -0.3025101773
H        1.6645181275    0.8398817792   -1.1922379127
H        0.3050918587    0.2880932691   -2.2368569807
H        0.1564855639    1.8218734663   -1.2938136521
H        0.4783270107   -2.4444212184   -0.3356838116
16   
torsion grid (-105,)
C       -1.6825402388   -0.1835724455   -0.1503410988
C        0.2637769201    0.2095068538    1.7442847666
C        2.3599724428   -1.6332127017   -0.1213634844
C        0.5857736044    0.7858948023   -1.3223174460
N        0.9969908605   -1.6054703325   -0.1057504684
O        3.0926705256   -0.6888862329    0.1522266980
S       -0.0896028198   -0.0962787209    0.1644838046
H       -2.0108241425   -0.0398123676   -1.1722089409
H       -2.3008845155   -0.6660443786    0.5947518782
H        1.2922533858   -0.0023284565    2.0138294949
H       -0.2234033040    1.1030069715    2.1199743617
H        2.7579987702   -2.6286702449   -0.4059547878
H        1.6664679735    0.8224466464   -1.1849110444
H        0.3194730456    0.2335496738   -2.2260615585
H        0.1523223553    1.7872346488   -1.3218978774
H        0.4875359257   -2.4022259686   -0.4801587448
16   
torsion grid (-90,)
C       -1.6837558914   -0.1799811776   -0.1282008780
C        0.2796120057    0.2285317060    1.7473211703
C        2.3535255762   -1.6358830581   -0.0839535984
C        0.5759594931    0.7574274828   -1.3347436787
N        0.9862233039   -1.6266372949   -0.0802266976
O        3.0726288698   -0.7224969024    0.3030431298
S       -0.0885326210   -0.0988844351    0.1772966984
H       -2.0158164231   -0.0388859692   -1.1492402146
H       -2.3011010124   -0.6566862831    0.6213843166
H        1.3076111711    0.0148430779    2.0159332919
H       -0.2095380140    1.1236359448    2.1157538001
H        2.7665228011   -2.5926239514   -0.4647709001
H        1.6577464004    0.7992565676   -1.2073024052
H        0.3038919553    0.1903712326   -2.2278605223
H        0.1438230379    1.7591895751   -1.3514797919
H        0.5191801366   -2.3260387684   -0.6543681678
16   
torsion grid (-75,)
C       -1.6876841018   -0.1701606647   -0.1005362885
C        0.3068406606    0.2440804623    1.7382231925
C        2.3522635489   -1.6542180770   -0.0211136197
C        0.5490154140    0.7372051992   -1.3612551884
N        0.9807328814   -1.6399849899   -0.0894096000
O        3.0565579201   -0.8042026835    0.5069155974
S       -0.0872173987   -0.0986755212    0.1803640773
H       -2.0335524946   -0.0295469285   -1.1170683957
H       -2.2961863763   -0.6471754398    0.6560651344
H        1.3353393937    0.0304346243    2.0021984759
H       -0.1946746663    1.1290606796    2.1131294987
H        2.7808575506   -2.5663978867   -0.4860709000
H        1.6325348771    0.7913916653   -1.2522328091
H        0.2699253973    0.1530163268   -2.2412497515
H        0.1100655334    1.7356348980   -1.3928168160
H        0.5931626495   -2.2153239174   -0.8365570547
16   
torsion grid (-60,)
C       -1.6903863311   -0.1721711805   -0.0616521929
C        0.3684212220    0.2842864343    1.6892808545
C        2.3610018602   -1.7414289259    0.1091599216
C        0.4720622332    0.7633702046   -1.4167653757
N        1.0205512832   -1.5980468821   -0.1705325219
O        3.0317699118   -1.0718949751    0.8802657470
S       -0.0806444209   -0.0823774819    0.1566464244
H       -2.0761719664   -0.0456462973   -1.0658213854
H       -2.2598232301   -0.6708317944    0.7115706072
H        1.3956133033    0.0583358972    1.9448035038
H       -0.1614695217    1.1370125080    2.0958463034
H        2.7958242776   -2.5993568394   -0.4462513190
H        1.5578228693    0.8436104983   -1.3544591859
H        0.1736073676    0.1727160466   -2.2864174424
H        0.0094656199    1.7514113906   -1.4355654446
H        0.7503363108   -2.0338508562   -1.0515229415
16   
torsion grid (-45,)
C       -1.5123251988   -0.3749305491    0.0701161128
C        0.6678726476    0.7141716621    1.4127477718
C        2.0749388842   -2.1052545256    0.3657736190
C        0.2514100073    0.9148717393   -1.5405354975
N        1.5573627045   -1.1185298187   -0.4454566525
O        2.1199328354   -2.0929238782    1.5862327261
S        0.0744495649    0.0137673081    0.0567383320
H       -2.0573895022   -0.3725675732   -0.8671435476
H       -1.8638939640   -0.9404762846    0.9241053251
H        1.6231087887    0.3509386150    1.7619195878
H       -0.0947838862    1.0968244009    2.0773530615
H        2.5048299649   -2.9431390822   -0.2249949789
H        1.2989804977    1.2035409938   -1.6121330815
H       -0.0449908274    0.2782346705   -2.3788142171
H       -0.3897227999    1.7940922002   -1.4738968960
H        1.4582010720   -1.4234821315   -1.4134261124
16   
torsion grid (-30,)
C       -1.4350604348   -0.4455774731    0.1355306935
C        0.7130839586    0.8465832084    1.3692477503
C        1.9011069110   -2.1752316789    0.3369032222
C        0.2271129294    0.9023921323   -1.5485322385
N        1.6544518641   -1.0394182661   -0.4053982183
O        1.5671262066   -2.3581935886    1.4970949738
S        0.1244194873    0.0353708829    0.0671493933
H       -1.9864365232   -0.5365762128   -0.7935679950
H       -1.7190538949   -1.0118883407    1.0137923593
H        1.7021330945    0.5508249278    1.6894809796
H       -0.0523479859    1.1319557724    2.0790209409
H        2.4808629920   -2.9326958878   -0.2336500914
H        1.2589475618    1.2364667645   -1.6533870404
H       -0.0655529216    0.2375181715   -2.3659448534
H       -0.4438633178    1.7587285322   -1.4807922895
H        1.7410508619   -1.2051211971   -1.4083620337
16   
torsion grid (-15,)
C       -1.4035489650   -0.4572860537    0.1819615450
C        0.7327665842    0.8867959217    1.3695036798
C        1.8093304597   -2.2205307991    0.2889727201
C        0.2110097018    0.8725835712   -1.5558126955
N        1.6856864927   -1.0114328288   -0.3555073506
O        1.2840277820   -2.5135464392    1.3525651258
S        0.1458765754    0.0489469082    0.0870247974
H       -1.9547059206   -0.5855594578   -0.7429743805
H       -1.6567267405   -1.0300646092    1.0653870992
H        1.7402736083    0.6389822541    1.6711237988
H       -0.0245151818    1.2099514921    2.0708732547
H        2.4729742192   -2.9264535759   -0.2548160320
H        1.2279281286    1.2455023363   -1.6790092130
H       -0.0599760820    0.1708855127   -2.3491666225
H       -0.4902659628    1.7060025185   -1.5111965669
H        1.9478460899   -1.0396390042   -1.3403436073
16   
torsion grid (0,)
C       -1.3913781869   -0.4518452623    0.2232272095
C        0.7355228700    0.8453478087    1.4176304731
C        1.7504471212   -2.2627570817    0.2320071532
C        0.1983345511    0.8352515387   -1.5660667526
N        1.6860861411   -0.9961045907   -0.2962901598
O        1.1030621301   -2.6660213682    1.1859576398
S        0.1561085069    0.0548609065    0.1150236665
H       -1.9404363065   -0.5919956796   -0.7012463850
H       -1.6308079925   -1.0327867680    1.1048207831
H        1.7778043619    0.7108479533    1.6622880049
H        0.0090506935    1.3583444097    2.0302834097
H        2.4859599995   -2.9045144162   -0.2983559807
H        1.1976230614    1.2528372166   -1.6964979158
H       -0.0301060496    0.0952807632   -2.3374082389
H       -0.5411298183    1.6365943894   -1.5569797802
H        2.1018397062   -0.8882020727   -1.2198075745
16   
torsion grid (15,)
C       -1.3981918704   -0.4335770857    0.2472715146
C        0.7441436962    0.8401051777    1.4253833913
C        1.7292701682   -2.2857757523    0.1960694607
C        0.1817366223    0.8113916179   -1.5732128537
N        1.6623413099   -1.0065194102   -0.2885650069
O        1.0108706621   -2.7523218830    1.0674112145
S        0.1521551384    0.0582800466    0.1229615949
H       -1.9506593594   -0.5811983139   -0.6741106318
H       -1.6313884944   -1.0149358204    1.1301728976
H        1.7921291684    0.7187790480    1.6520978871
H        0.0385428339    1.4130985161    2.0087702946
H        2.5351034815   -2.8773172260   -0.2885151360
H        1.1740095347    1.2425019771   -1.7145057474
H       -0.0320013966    0.0500431126   -2.3270847239
H       -0.5699693458    1.6015169871   -1.5809452133
H        2.2298886400   -0.7889332446   -1.1046133897
16   
torsion grid (30,)
C       -1.4180318226   -0.4115293886    0.2538125820
C        0.7602250862    0.8024902944    1.4180673704
C        1.7348625753   -2.2944017103    0.1979690462
C        0.1603331942    0.8116325371   -1.5822378768
N        1.6108677192   -1.0425294733   -0.3378429372
O        0.9767984261   -2.7983400997    1.0130122865
S        0.1386067295    0.0515132791    0.1100351314
H       -1.9823768596   -0.5466487028   -0.6623166094
H       -1.6469310015   -0.9991409195    1.1336663091
H        1.8138144827    0.6824549195    1.6191287706
H        0.0821780584    1.4142927530    1.9949472660
H        2.6209825352   -2.8328739855   -0.2010570168
H        1.1544510145    1.2358262423   -1.7310677962
H       -0.0608037459    0.0510362622   -2.3341442905
H       -0.5862824605    1.6068046048   -1.5830161099
H        2.3092868577   -0.7354488659   -1.0103705728
16   
torsion grid (45,)
C       -1.4470256358   -0.3850280864    0.2460833886
C        0.8091351331    0.8339184121    1.3251531220
C        1.7674866836   -2.2704365364    0.2320959940
C        0.1344318968    0.8285408311   -1.5903240754
N        1.5605895120   -1.1121141176   -0.4663228446
O        0.9892374039   -2.7610854470    1.0375277332
S        0.1166881107    0.0388200492    0.0672283720
H       -2.0451131902   -0.4886966402   -0.6526186757
H       -1.6715754875   -0.9701587931    1.1289195092
H        1.8149073441    0.5431453541    1.5919729013
H        0.1144858785    1.2673346360    2.0313753810
H        2.7310579127   -2.7579434054   -0.0299638966
H        1.1383190833    1.2246919083   -1.7445131024
H       -0.1176485806    0.0864272938   -2.3502442654
H       -0.5876950760    1.6453314472   -1.5622649186
H        2.3606998004   -0.7276091589   -0.9655190700
16   
torsion grid (60,)
C       -1.4357305765   -0.3829728664    0.2767702197
C        0.8118581946    0.7912060639    1.3572955819
C        1.7298146041   -2.2998727731    0.1773343413
C        0.1142732029    0.8090468707   -1.6023945585
N        1.5808376449   -1.0890283427   -0.4508103020
O        0.8687024963   -2.8791080889    0.8217239210
S        0.1251544724    0.0426254560    0.0768065315
H       -2.0355794797   -0.5030246919   -0.6187436721
H       -1.6471221040   -0.9707714875    1.1609492788
H        1.8557012605    0.6052070677    1.5596112841
H        0.1575903038    1.3769074152    1.9862332350
H        2.7356148757   -2.7409162737    0.0072810038
H        1.1124627279    1.2117938934   -1.7762144808
H       -0.1312495699    0.0471398438   -2.3443629179
H       -0.6199775579    1.6156476075   -1.5852096697
H        2.4456302940   -0.6387419471   -0.7476842435
16   
torsion grid (75,)
C       -1.4014906503   -0.3605040141    0.5403226638
C        0.7206295323    1.1004781258    1.4527963681
C        1.5844174157   -2.2496170887   -0.4369825064
C        0.2110615850    0.4367599127   -1.5191865638
N        1.6832926974   -1.0635465923    0.2395240445
O        0.5440438112   -2.7696801439   -0.8227532497
S        0.1468928959    0.0800535756    0.2986725949
H       -1.9132638000   -0.8225237157   -0.2958521359
H       -1.6518710928   -0.6386288685    1.5566862801
H        1.7932168780    1.1290896638    1.5900002731
H        0.0975737105    1.9607353111    1.6582578296
H        2.5723963114   -2.7337706168   -0.5886574558
H        1.2116595300    0.8208122015   -1.7184645704
H        0.0240989860   -0.4851254676   -2.0740040936
H       -0.5436743197    1.1957326507   -1.7293462203
H        2.5889972983   -0.6051271869    0.1475722944
16   
torsion grid (90,)
C       -1.3890689233   -0.3751506727    0.5651796037
C        0.7343165211    1.1040747750    1.4488584176
C        1.5854513725   -2.2365455595   -0.4813120893
C        0.1946025928    0.4355777929   -1.5217044489
N        1.6487794100   -1.0783526607    0.2381457539
O        0.5801563360   -2.6850384943   -1.0224850084
S        0.1486270229    0.0807518882    0.2931996380
H       -1.9022896118   -0.8576093866   -0.2581721221
H       -1.6198796531   -0.6433196855    1.5887808886
H        1.8122385499    1.2087213412    1.4834963316
H        0.1049706539    1.9672532234    1.6274086228
H        2.5581690157   -2.7698297496   -0.5148146521
H        1.1970785002    0.8102792714   -1.7295053520
H       -0.0038157522   -0.4859846996   -2.0723982328
H       -0.5569438142    1.2008192479   -1.7197214183
H        2.5755885684   -0.6805088847    0.3736296203
16   
torsion grid (105,)
C       -1.3760026372   -0.3859556488    0.5807960594
C        0.7562727457    1.1066447301    1.4339907004
C        1.5932644816   -2.2330776227   -0.5039188556
C        0.1765943333    0.4449397019   -1.5276608380
N        1.6365770514   -1.0730318870    0.2074505122
O        0.6279996628   -2.6341811238   -1.1476450175
S        0.1525608693    0.0831369086    0.2819010614
H       -1.8962081394   -0.8719533987   -0.2358498718
H       -1.5877835594   -0.6577250141    1.6075252366
H        1.8277940947    1.2687309901    1.3883233542
H        0.1095967243    1.9540721978    1.6285677042
H        2.5370968814   -2.8116794371   -0.4352871548
H        1.1774966786    0.8189595604   -1.7436621939
H       -0.0260443734   -0.4754781637   -2.0783788826
H       -0.5771430520    1.2116302735   -1.7111845066
H        2.5359090271   -0.7498943197    0.5536182449
16   
torsion grid (120,)
C       -1.3563568515   -0.4038942743    0.5882328651
C        0.7806799529    1.1019505784    1.4202672240
C        1.5983434874   -2.2359436078   -0.5072284731
C        0.1571284634    0.4680455009   -1.5373362098
N        1.6526827908   -1.0449243544    0.1475974905
O        0.6657117330   -2.6075483406   -1.2144628586
S        0.1619958358    0.0853608777    0.2645551486
H       -1.8848124373   -0.8877857401   -0.2243454308
H       -1.5446969293   -0.6924869404    1.6150193638
H        1.8402594730    1.3109283881    1.3106084404
H        0.1187670773    1.9309963291    1.6428946603
H        2.4982005156   -2.8613833979   -0.3395783825
H        1.1517087982    0.8535482179   -1.7609706050
H       -0.0405273352   -0.4502831716   -2.0933520420
H       -0.6082451293    1.2275042494   -1.7015705322
H        2.4771413440   -0.7989465677    0.6882548938
16   
torsion grid (135,)
C       -1.3305426939   -0.4249870202    0.5915597305
C        0.8029057027    1.1022279230    1.4048536481
C        1.6017850961   -2.2308819634   -0.5053082445
C        0.1388044684    0.4865046018   -1.5496139867
N        1.6894530618   -1.0074726384    0.0904725608
O        0.7043508690   -2.5737531722   -1.2696873806
S        0.1759725581    0.0905018029    0.2465007248
H       -1.8680373045   -0.9052959736   -0.2171514766
H       -1.4985016337   -0.7266964816    1.6181377625
H        1.8506754817    1.3446521542    1.2551809231
H        0.1268365115    1.9099541972    1.6611620534
H        2.4433124854   -2.9030851151   -0.2441945981
H        1.1297654302    0.8719380246   -1.7880823424
H       -0.0667595352   -0.4295063753   -2.1061980259
H       -0.6300385778    1.2464789697   -1.6937270821
H        2.3979988693   -0.8554411869    0.8046812863
16   
torsion grid (150,)
C       -1.3142741383   -0.4256761952    0.6068532960
C        0.8195709795    1.1141027840    1.3932868051
C        1.6303297956   -2.2042506547   -0.5337370672
C        0.1172658498    0.4730009934   -1.5583934633
N        1.7176877134   -0.9845547127    0.0829148700
O        0.7973397325   -2.5077229714   -1.3814709813
S        0.1860553072    0.0980635336    0.2413407393
H       -1.8661970588   -0.9015526650   -0.1947339915
H       -1.4733608173   -0.7202754661    1.6368386370
H        1.8635387338    1.3620876932    1.2281370332
H        0.1401553479    1.9146668470    1.6630113933
H        2.4182542529   -2.9115355426   -0.2063404375
H        1.1105002239    0.8337837219   -1.8249439001
H       -0.1177082401   -0.4446779067   -2.0987963211
H       -0.6378235475    1.2487597787   -1.6902432588
H        2.2766466545   -0.9490814907    0.9348621995
16   
torsion grid (165,)
C       -1.3128847728   -0.4016715619    0.6343147043
C        0.8287116398    1.1380549648    1.3787550644
C        1.6941794963   -2.1636956246   -0.5851523283
C        0.0888050327    0.4318136439   -1.5623200517
N        1.7279545888   -0.9821158579    0.1179076830
O        0.9709380185   -2.4114790450   -1.5427334364
S        0.1877906249    0.1080579800    0.2478681401
H       -1.8891658158   -0.8671740174   -0.1559970811
H       -1.4750924608   -0.6659899229    1.6717468974
H        1.8800443325    1.3588076020    1.2289958678
H        0.1549928972    1.9416238791    1.6521786936
H        2.4339165064   -2.8994539470   -0.2101364885
H        1.0892627653    0.7362568929   -1.8696788360
H       -0.2018769768   -0.4859655256   -2.0717815473
H       -0.6303684994    1.2417853590   -1.6902987269
H        2.1207734123   -1.0837170726    1.0549169982
16   
torsion grid (180,)
C       -1.3359208815   -0.3465514572    0.6797049354
C        0.8409023749    1.1623953972    1.3583331491
C        1.8067890822   -2.1096803067   -0.6538238710
C        0.0477671016    0.3693974291   -1.5559193035
N        1.6974238320   -1.0230551948    0.1859495135
O        1.2879753473   -2.2452211419   -1.7546336087
S        0.1741121635    0.1135618628    0.2648905978
H       -1.9459695355   -0.8041910800   -0.0895100699
H       -1.5045086417   -0.5562710293    1.7283401509
H        1.9025184513    1.3327844905    1.2236017548
H        0.1880103467    1.9866147161    1.6196919501
H        2.4773720846   -2.8869453606   -0.2330856679
H        1.0520736192    0.6021380760   -1.9082836613
H       -0.3092801507   -0.5427929958   -2.0296558134
H       -0.6277378508    1.2158077918   -1.6884940076
H        1.9164534458   -1.2728534503    1.1514795043
