22   
torsion grid (-165,)
C        1.5028123789   -0.5863301148   -0.6601192146
C        0.5777762641    0.3150911845   -0.1392636262
C        3.0958855365    0.0407956197    1.0546883100
C        2.7712182898   -0.7194550829   -0.0774498549
C        0.9194952697    1.0730659141    0.9784268413
C        2.1688948634    0.9385744711    1.5861298949
C        3.7191354485   -1.7122878373   -0.6939880353
C        7.4087742868   -2.2105447913   -0.3390248262
C        6.0685412624   -2.3731370593   -1.0510233339
N        5.0504238585   -1.5210144419   -0.4364801925
O        3.3060546316   -2.6487506689   -1.3794242994
F        0.0186138889    1.9402548585    1.4790248518
Br       2.5890894760    1.9617869205    3.1390831270
H        1.2587698806   -1.2024327563   -1.5191862306
H       -0.4073558903    0.4421313946   -0.5779136362
H        4.0492228526   -0.0820711298    1.5583461570
H        7.7738427374   -1.1781069694   -0.3991418559
H        7.3283501298   -2.4853950615    0.7174373424
H        8.1626002368   -2.8524699399   -0.8043959713
H        5.7120977190   -3.4032255802   -0.9875030962
H        6.1660391120   -2.1373789181   -2.1189950821
H        5.3467153923   -0.6089106778   -0.1136188905
22   
torsion grid (-150,)
C        1.4504026057   -0.6283758214   -0.6059975744
C        0.5098244124    0.2499735185   -0.0735871009
C        3.0726297601    0.0935664698    1.0401517361
C        2.7416897461   -0.7031496989   -0.0646680412
C        0.8590925624    1.0441506741    1.0163026572
C        2.1314658742    0.9685059565    1.5849995714
C        3.7048901939   -1.6752497921   -0.6920958307
C        7.3355506559   -2.2571142565   -0.2317439871
C        6.0804469185   -2.2378373226   -1.1020489780
N        5.0348141673   -1.4132700344   -0.4989906377
O        3.3011427299   -2.6487020570   -1.3300602874
F       -0.0567291718    1.8886940485    1.5284161507
Br       2.5639667151    2.0392670538    3.1023146945
H        1.2008836493   -1.2718242518   -1.4430889884
H       -0.4930230850    0.3314053323   -0.4818995388
H        4.0454832417    0.0169175919    1.5148525975
H        7.7510504145   -1.2505340718   -0.1022220651
H        7.1175701998   -2.6675616618    0.7589731317
H        8.1092149710   -2.8739217554   -0.6995154964
H        5.6640181319   -3.2394706719   -1.2178729746
H        6.3171686154   -1.8708119858   -2.1099053031
H        5.2981718841   -0.4884228818   -0.1845895426
22   
torsion grid (-135,)
C        1.3952086467   -0.6836066191   -0.5584555522
C        0.4263590744    0.1631322155   -0.0254809010
C        3.0197584988    0.1601717034    1.0270087285
C        2.7011974471   -0.6810022349   -0.0481358192
C        0.7616255700    1.0027530043    1.0342427175
C        2.0496336291    1.0029631281    1.5718813244
C        3.6944143461   -1.6235843398   -0.6747625499
C        7.2404399943   -2.2833897170   -0.1319514190
C        6.0950787244   -2.0742476908   -1.1230803654
N        5.0136587861   -1.2842468940   -0.5385650020
O        3.3191956663   -2.6366903257   -1.2668030310
F       -0.1817161959    1.8160181189    1.5472076439
Br       2.4654248786    2.1345902904    3.0489374560
H        1.1570872024   -1.3609839004   -1.3717486104
H       -0.5886116885    0.1852147097   -0.4106376410
H        4.0059528940    0.1437899966    1.4797814724
H        7.6741893863   -1.3292024987    0.1893591016
H        6.8901679576   -2.8162289119    0.7572545353
H        8.0391116167   -2.8712221970   -0.5959634749
H        5.6551190108   -3.0259631591   -1.4234470992
H        6.4615564801   -1.5832934153   -2.0341799650
H        5.2369621693   -0.3499509381   -0.2223951288
22   
torsion grid (-120,)
C        4.1170469448    1.3626180799   -1.9126029544
C        3.4766829673    2.5764947947   -1.6758699889
C        4.2504261759    0.9593031191    0.4709012553
C        4.5225809624    0.5522643305   -0.8425528791
C        3.2248185189    2.9737304313   -0.3647041045
C        3.5997432657    2.1703033165    0.7131049964
C        5.2087265856   -0.7462395037   -1.1761147954
C        6.3744438269   -3.5747516388    0.6485930291
C        6.7662314402   -2.5095307808   -0.3780035517
N        6.0136319672   -1.2694728499   -0.2008294458
O        5.0416880132   -1.2867121020   -2.2706946899
F        2.6010452676    4.1472695194   -0.1450668307
Br       3.2071875500    2.7224324568    2.4952213444
H        4.3090963685    1.0209910848   -2.9242019674
H        3.1621502986    3.2244628446   -2.4883654752
H        4.5004891618    0.3287433657    1.3181084420
H        6.5612824273   -3.2326600393    1.6728381090
H        5.3125258156   -3.8224337959    0.5590490584
H        6.9577550656   -4.4878356607    0.4887298408
H        6.5610648233   -2.8529764817   -1.3927054535
H        7.8390459123   -2.2902539512   -0.3130441992
H        6.2360343530   -0.6940432793    0.5998413205
22   
torsion grid (-105,)
C        4.0733417105    1.3029929018   -1.8719109401
C        3.4159345505    2.5081999335   -1.6380771200
C        4.3349493664    0.9708033813    0.5117983335
C        4.5511453565    0.5328800155   -0.8018959818
C        3.2194126882    2.9364331452   -0.3272304994
C        3.6671364888    2.1730169797    0.7517681191
C        5.2490906257   -0.7595637393   -1.1351002093
C        6.2836266659   -3.6034226009    0.5300073027
C        6.8486977143   -2.4907620279   -0.3573677056
N        6.1289370569   -1.2290690975   -0.2004521524
O        5.0375129432   -1.3360653776   -2.2037806159
F        2.5782395594    4.1007955108   -0.1086732671
Br       3.3511876202    2.7675775472    2.5352015617
H        4.2231489212    0.9364386814   -2.8818920872
H        3.0460620558    3.1250323619   -2.4515133114
H        4.6423547359    0.3730282980    1.3640800913
H        6.3322787982   -3.3318022378    1.5904572807
H        5.2389333284   -3.8033680169    0.2743661889
H        6.8561302713   -4.5270362494    0.3919450931
H        6.7715042277   -2.7649151871   -1.4105600195
H        7.9072666327   -2.3180054151   -0.1329064072
H        6.3203479000   -0.6685946868    0.6179749326
22   
torsion grid (-90,)
C        4.0070959999    1.1793507770   -2.0755913559
C        3.3466374012    2.4026005824   -1.9934789889
C        4.3345196866    1.1818012694    0.3234366801
C        4.5186520293    0.5669503843   -0.9225586737
C        3.1829559609    3.0073566111   -0.7493862859
C        3.6656202736    2.4036480670    0.4126471353
C        5.2204870310   -0.7539170772   -1.0921495268
C        6.1276838942   -3.5228520129    0.4962956771
C        6.8601387527   -2.3572366208   -0.1738534761
N        6.1035900314   -1.1061251949   -0.1108174729
O        5.0061865115   -1.4669889922   -2.0746829265
F        2.5391983297    4.1883028267   -0.6767910516
Br       3.3968889035    3.2403830533    2.1041476947
H        4.1341309138    0.6770288992   -3.0287122661
H        2.9501200834    2.8992170467   -2.8738967576
H        4.6687215433    0.7082520499    1.2410602710
H        5.9472271586   -3.3198620533    1.5571676338
H        5.1651211135   -3.6948011414    0.0070862314
H        6.7220160108   -4.4398200607    0.4184588867
H        7.0389701219   -2.5817544336   -1.2279209698
H        7.8298312704   -2.1840661373    0.3032131583
H        6.3470118264   -0.4297239564    0.5981734451
22   
torsion grid (-75,)
C        3.9497806712    1.1372877683   -1.4522742709
C        3.2832107212    2.3199945243   -1.1423161989
C        4.5490481387    0.8539368005    0.8781542467
C        4.5986668732    0.4042265841   -0.4484086409
C        3.2530921158    2.7618820579    0.1783964203
C        3.8756588331    2.0349200420    1.1941483859
C        5.2985739957   -0.8634878645   -0.8586931793
C        6.2311376172   -3.8028477626   -0.0437892698
C        7.0386418316   -2.5348020762   -0.3321838650
N        6.2941114889   -1.3083962454   -0.0367705101
O        4.9881879401   -1.4562041730   -1.8943820667
F        2.6028397444    3.9048259156    0.4701214937
Br       3.7915330895    2.6493348774    2.9965393090
H        3.9759776475    0.7607348860   -2.4694180386
H        2.7804818728    2.9092947860   -1.9032038777
H        4.9936447211    0.2804037130    1.6852360684
H        5.9362276586   -3.8486464922    1.0095961752
H        5.3309930567   -3.8276666815   -0.6620145977
H        6.8318677333   -4.6896988823   -0.2729494754
H        7.3325175607   -2.5138286128   -1.3860472906
H        7.9515253960   -2.5119517239    0.2701334677
H        6.6151503695   -0.7146318215    0.7138028653
22   
torsion grid (-60,)
C        3.9004088776    1.0911925309   -1.3966479383
C        3.2171985989    2.2622197353   -1.0789051194
C        4.5946025157    0.8560567517    0.9105060124
C        4.6053830043    0.3868502290   -0.4100997569
C        3.2271513594    2.7226117415    0.2357819060
C        3.9058141601    2.0255622356    1.2362973711
C        5.3175742274   -0.8713274406   -0.8324333919
C        6.1846640703   -3.7688256560   -0.1466307319
C        7.0783204228   -2.5317221603   -0.2681290691
N        6.3660532177   -1.2680126626   -0.0542935622
O        4.9763398143   -1.4832397191   -1.8472922858
F        2.5614325953    3.8541668182    0.5367406694
Br       3.8781361824    2.6644665976    3.0319353784
H        3.8970549282    0.7006426688   -2.4087748790
H        2.6718995562    2.8280230841   -1.8282631732
H        5.0829203924    0.3067556140    1.7091982459
H        5.7229957494   -3.8235153640    0.8450542354
H        5.3971352343   -3.7481152945   -0.9008873910
H        6.7867610831   -4.6717014911   -0.2950360598
H        7.5377521104   -2.5102642721   -1.2627402372
H        7.8876329842   -2.5652125192    0.4664268838
H        6.6585118622   -0.6763467995    0.7092891046
22   
torsion grid (-45,)
C        3.7501696136    1.0471217103   -1.0970113158
C        3.0168113881    2.1575130818   -0.6868941336
C        4.5020775889    0.6894690763    1.1758883613
C        4.5092390790    0.3132886378   -0.1741240367
C        3.0308879434    2.5264475700    0.6563761876
C        3.7632930552    1.7975596232    1.5942029535
C        5.2710592933   -0.8788608951   -0.6946978611
C        6.2711252721   -3.7375135248   -0.3534454561
C        7.1341400048   -2.4834375562   -0.1948547453
N        6.3777408660   -1.2421204833    0.0174349293
O        4.9169902739   -1.4498284466   -1.7283206291
F        2.3165330687    3.5996268990    1.0465178726
Br       3.7416335249    2.3093786048    3.4302709166
H        3.7443191563    0.7271387605   -2.1336141546
H        2.4291735310    2.7452373439   -1.3856827764
H        5.0328453159    0.1113929004    1.9258264648
H        5.6065346279   -3.8681713934    0.5074039124
H        5.6633644944   -3.6834931562   -1.2558662749
H        6.9250035098   -4.6139393144   -0.4164228876
H        7.7665740763   -2.3671724618   -1.0837640310
H        7.8026238442   -2.5866314990    0.6644979472
H        6.6387705389   -0.6720007114    0.8086272205
22   
torsion grid (-30,)
C        3.8098514086    1.0206917324   -1.2339154915
C        3.1828091160    2.2218525308   -0.9127647031
C        4.7282008181    0.8884882821    1.0017791313
C        4.5980338006    0.3518865659   -0.2863605814
C        3.3335341276    2.7492219686    0.3678124368
C        4.0973247242    2.0893944895    1.3313183624
C        5.2395891590   -0.9470434547   -0.7107542809
C        6.2600844418   -3.7914040011   -0.4512640635
C        7.1063988602   -2.5630730019   -0.1147406260
N        6.3700756392   -1.2936647767   -0.0263626762
O        4.7609046049   -1.6053891936   -1.6355376785
F        2.7215217542    3.9098542681    0.6724244196
Br       4.2645753233    2.8213966516    3.0836039943
H        3.6967119257    0.5786765625   -2.2181736575
H        2.5747710567    2.7606458124   -1.6332246149
H        5.2830730368    0.3676058464    1.7756792842
H        5.4214850234   -3.8956327476    0.2443145033
H        5.8576341122   -3.7395558108   -1.4612233430
H        6.8932742842   -4.6804616775   -0.3592651177
H        7.9097375664   -2.4638208043   -0.8573847518
H        7.5872665960   -2.7040789917    0.8588220430
H        6.7556131816   -0.6015625142    0.6002498602
22   
torsion grid (-15,)
C        3.2360343169    0.7260750809   -0.5786104490
C        2.3984260978    1.7156689287   -0.0703743377
C        4.0447008277    0.2481104952    1.6517952381
C        4.0758592476   -0.0050281060    0.2737851310
C        2.3895860052    1.9646628048    1.3002671157
C        3.2024240839    1.2346119035    2.1680412902
C        4.9489606862   -1.0651917244   -0.3570890959
C        6.6430446539   -3.5268982702   -0.8871150642
C        7.0765135923   -2.4219951339    0.0753120992
N        6.0889675229   -1.3627369401    0.3356257761
O        4.6252845774   -1.5739393108   -1.4306822959
F        1.5739975694    2.9207339901    1.7854449111
Br       3.1511168706    1.5792818677    4.0424051526
H        3.2503657963    0.4990091734   -1.6393452172
H        1.7466168790    2.2994865365   -0.7133305416
H        4.6380934004   -0.3377620914    2.3467163675
H        5.7168874945   -4.0049936281   -0.5583364292
H        6.4842040664   -3.1498909407   -1.8961197404
H        7.4345962527   -4.2841111820   -0.9061876123
H        7.9959118220   -1.9556458816   -0.3037920505
H        7.3229008784   -2.8652163880    1.0473371188
H        6.2999581426   -0.7716084546    1.1275926579
22   
torsion grid (0,)
C        2.4636751779   -0.2359122758   -0.3339227234
C        1.3428154021    0.3450726194    0.2539990731
C        3.0699667214   -1.2380011925    1.7836034568
C        3.3441471556   -1.0183265942    0.4268779298
C        1.0921695736    0.1283929594    1.6070398100
C        1.9440034942   -0.6642386079    2.3769642297
C        4.5327060275   -1.6179103263   -0.2907773926
C        7.0747769194   -2.9639560746   -1.2839186179
C        6.8937565989   -2.5203684732    0.1667267606
N        5.6114566117   -1.8821043534    0.5060951109
O        4.4844600249   -1.8132873404   -1.5051625361
F        0.0036547408    0.6895401640    2.1683653820
Br       1.5626214457   -0.9648007965    4.2205761960
H        2.6723991172   -0.0993559603   -1.3897081875
H        0.6532869789    0.9617184472   -0.3146839891
H        3.6968132621   -1.8851477320    2.3891080937
H        6.3309665115   -3.7055529932   -1.5787530924
H        7.0029830138   -2.1263060976   -1.9779097262
H        8.0708328827   -3.4122424458   -1.3708535941
H        7.6924942860   -1.8143791187    0.4276795381
H        7.0116846962   -3.3901365619    0.8259501026
H        5.5456580338   -1.5638183039    1.4630445037
22   
torsion grid (15,)
C        2.2980843703   -0.5522450308   -0.3207503934
C        1.1672896870    0.0207727729    0.2561884982
C        2.9168763305   -1.5104855796    1.8129873721
C        3.1901976874   -1.3080987849    0.4533041698
C        0.9170951281   -0.1779512575    1.6119276005
C        1.7803522049   -0.9455802134    2.3944719751
C        4.3909076608   -1.8962310770   -0.2533056044
C        7.1633231016   -2.5745753535   -1.3090954634
C        6.7987786959   -2.6558672163    0.1731659728
N        5.4630642978   -2.1632183208    0.5518879413
O        4.3550653974   -2.1001561057   -1.4667327979
F       -0.1809105486    0.3749133118    2.1631416563
Br       1.3994502678   -1.2253306738    4.2411427222
H        2.5060976861   -0.4295324352   -1.3783413919
H        0.4692940729    0.6171945597   -0.3236069118
H        3.5519492159   -2.1376421423    2.4307726882
H        6.5314361282   -3.2162871535   -1.9210763886
H        7.0736078707   -1.5544238039   -1.6903838919
H        8.2064621379   -2.8933029577   -1.4135981010
H        7.5201461519   -2.0713847665    0.7550125056
H        6.8919461812   -3.6976134693    0.5084098761
H        5.3923420889   -1.8329217768    1.5039907277
22   
torsion grid (30,)
C        2.2393832615   -0.7369271474   -0.3203523429
C        1.1306507752   -0.1098357349    0.2431184225
C        2.8987991192   -1.5556559424    1.8596431436
C        3.1404857240   -1.4501823001    0.4829879254
C        0.9121939226   -0.2121504060    1.6149503243
C        1.7841465779   -0.9372095694    2.4282424829
C        4.3176507445   -2.0986271932   -0.2050295011
C        7.1595004499   -2.2781904819   -1.2503915958
C        6.7337481609   -2.7791248897    0.1318344324
N        5.3979657450   -2.3599451252    0.5942499008
O        4.2637426952   -2.3778614062   -1.4029213939
F       -0.1643602351    0.3931476125    2.1529158524
Br       1.4437216756   -1.0879118013    4.2975971010
H        2.4228834082   -0.6892658698   -1.3885191013
H        0.4257834674    0.4554280052   -0.3591358213
H        3.5423857489   -2.1480145406    2.5021975369
H        6.5468792153   -2.7082711041   -2.0404428874
H        7.0860963848   -1.1877714237   -1.3173230181
H        8.2060912482   -2.5598120832   -1.4107813370
H        7.4389634908   -2.4254367281    0.8895981032
H        6.7799731090   -3.8753303882    0.1441814466
H        5.3811712806   -1.9228213009    1.5049517751
22   
torsion grid (45,)
C        2.1877329553   -0.8639890427   -0.3119530017
C        1.0895126882   -0.2113572219    0.2429513657
C        2.9057970947   -1.5553119425    1.8949971252
C        3.1114636832   -1.5267210269    0.5087186231
C        0.9061797392   -0.2371433919    1.6235283402
C        1.8020323940   -0.9107998864    2.4552405914
C        4.2759722271   -2.2061116329   -0.1645878111
C        7.1544956878   -2.0885184885   -1.1526102823
C        6.6773863038   -2.8566987536    0.0838581338
N        5.3728297661   -2.4388309961    0.6242219563
O        4.2105052339   -2.5470573795   -1.3461568095
F       -0.1601277990    0.3929030046    2.1530321563
Br       1.5075768799   -0.9575146118    4.3377222152
H        2.3454256419   -0.8749468254   -1.3852838837
H        0.3664633287    0.3158917210   -0.3720728325
H        3.5706217869   -2.1074170616    2.5514099392
H        6.4870689154   -2.2535643971   -1.9974243044
H        7.2067998429   -1.0122180545   -0.9532871354
H        8.1595107237   -2.4325143259   -1.4203753507
H        7.3938769917   -2.7542146169    0.9033250897
H        6.6195098985   -3.9237059180   -0.1580048102
H        5.4122244388   -1.9091571148    1.4847202800
22   
torsion grid (60,)
C        2.1307822870   -0.9531113717   -0.2958866645
C        1.0348026033   -0.2964618698    0.2586753239
C        2.9196564152   -1.5330184974    1.9193968517
C        3.0877635752   -1.5624271370    0.5281025106
C        0.8889840790   -0.2642241426    1.6436193315
C        1.8191413939   -0.8836101726    2.4800763785
C        4.2481961624   -2.2479734225   -0.1416654414
C        7.1942264511   -1.9811217555   -1.0514259535
C        6.6281756507   -2.9016030767    0.0347116827
N        5.3686029522   -2.4336151613    0.6268063621
O        4.1707169490   -2.6373343359   -1.3078162528
F       -0.1747350095    0.3696339007    2.1735818584
Br       1.5747908156   -0.8505951373    4.3699469888
H        2.2615109392   -1.0078781021   -1.3715109858
H        0.2858853236    0.1900096588   -0.3590023189
H        3.6131799121   -2.0434200521    2.5797337350
H        6.4962173269   -1.8998692031   -1.8857742436
H        7.3909942064   -0.9781430320   -0.6560650383
H        8.1394615477   -2.3891207614   -1.4256229683
H        7.3385052885   -3.0224949148    0.8574072190
H        6.4458328316   -3.8941019722   -0.3872890818
H        5.4518910583   -1.8543272718    1.4519829111
22   
torsion grid (75,)
C        2.0463079677   -1.0240538279   -0.2660106563
C        0.9575608244   -0.3697242028    0.3052645851
C        2.9235550242   -1.5126224723    1.9383258949
C        3.0431569719   -1.5867951673    0.5437400251
C        0.8596893348   -0.2922052742    1.6926714478
C        1.8309831400   -0.8644639598    2.5157970236
C        4.1936249096   -2.2728019351   -0.1409671234
C        7.2589843244   -1.9086528088   -0.9516838617
C        6.5696063238   -2.9165590567   -0.0268381760
N        5.3471497688   -2.3964224578    0.5896106911
O        4.0865748566   -2.7082454290   -1.2884582283
F       -0.1971989179    0.3397013006    2.2384269993
Br       1.6532232782   -0.7686611512    4.4109554935
H        2.1404266446   -1.1129960389   -1.3431858552
H        0.1777820274    0.0811086626   -0.3011338667
H        3.6508488583   -1.9867158290    2.5892942350
H        6.5903359477   -1.6249887345   -1.7679109176
H        7.5497463969   -1.0043355873   -0.4053188846
H        8.1640701942   -2.3490324575   -1.3838670173
H        7.2378579130   -3.2275144150    0.7820773574
H        6.2912153681   -3.8097323293   -0.5900022594
H        5.4612980281   -1.7846648516    1.3872600384
22   
torsion grid (90,)
C        1.9864594515   -1.0776360657   -0.3082496711
C        0.9098022627   -0.4052842579    0.2648066084
C        2.9620275015   -1.4083578981    1.8827430222
C        3.0265757375   -1.5714867647    0.4921269789
C        0.8675330409   -0.2386825561    1.6470895405
C        1.8827617073   -0.7404070568    2.4629870749
C        4.1589123151   -2.2818884379   -0.1999901670
C        7.3953449334   -1.9141976665   -0.8573900992
C        6.5376534080   -2.9443463280   -0.1165122254
N        5.3412143303   -2.3592125722    0.4865969431
O        4.0114903042   -2.7657706992   -1.3235504956
F       -0.1773893236    0.4107180089    2.1953579517
Br       1.7832813161   -0.5212769376    4.3537201372
H        2.0386630738   -1.2345947472   -1.3804347434
H        0.0975066419   -0.0077234718   -0.3361343764
H        3.7219506775   -1.8271546927    2.5343856404
H        6.8229896198   -1.4530296757   -1.6673952968
H        7.7384333258   -1.1237789595   -0.1806263415
H        8.2786546292   -2.3954712461   -1.2908939886
H        7.1156355727   -3.4265954833    0.6793837898
H        6.1979924064   -3.7214542565   -0.8023196490
H        5.4725447442   -1.7496099363    1.2825366349
22   
torsion grid (105,)
C        1.9518738981   -0.4452124033   -0.9127729275
C        1.0098422714    0.4876797182   -0.4862858904
C        3.0023024563   -0.3987983481    1.2682569332
C        2.9625431409   -0.8847946472   -0.0458847961
C        1.0715642854    0.9718393531    0.8183258469
C        2.0573842990    0.5317459743    1.7028969819
C        3.9461464578   -1.8917835187   -0.5805350819
C        7.3555612914   -2.0968108055   -1.0774263262
C        6.2244706546   -2.8485946160   -0.3706039316
N        5.1501880192   -1.9603421626    0.0665891188
O        3.6630783273   -2.6019321679   -1.5469802662
F        0.1560202667    1.8721460542    1.2250362624
Br       2.0998987685    1.1925168048    3.4904067013
H        1.9188453784   -0.8510313995   -1.9183134221
H        0.2234485817    0.8481163606   -1.1425490944
H        3.7369077121   -0.7601613135    1.9806152765
H        6.9784043954   -1.5819490456   -1.9660844253
H        7.8144157832   -1.3523343452   -0.4166169655
H        8.1390694875   -2.7952500721   -1.3900121216
H        6.6104106131   -3.3866296969    0.5031664165
H        5.7695231840   -3.5795496224   -1.0399138762
H        5.3870256421   -1.2274842671    0.7215762847
22   
torsion grid (120,)
C        1.8987800277   -0.2066493827   -1.0666845860
C        1.0193284578    0.8006765720   -0.6779179102
C        3.0870320995    0.0045618614    1.0318091218
C        2.9467527968   -0.6031497066   -0.2234089953
C        1.1805271740    1.4040596321    0.5671656993
C        2.2045832457    1.0100650785    1.4295594770
C        3.8544533011   -1.6995301053   -0.7168576755
C        7.3755830110   -2.1197387833   -1.0361926277
C        6.0908246230   -2.7633902611   -0.5109618344
N        5.0910001863   -1.7665565608   -0.1369377036
O        3.4851411825   -2.4739823897   -1.6015797579
F        0.3245048360    2.3754343288    0.9384688152
Br       2.3834966710    1.8345391542    3.1390507890
H        1.7878042310   -0.7053231073   -2.0236684993
H        0.2059077442    1.1286431698   -1.3180862906
H        3.8516385120   -0.3147625096    1.7326642182
H        7.1723048955   -1.5212221307   -1.9294000219
H        7.8345124759   -1.4680514352   -0.2833228377
H        8.1070250990   -2.8918653273   -1.2962717458
H        6.3107556393   -3.3970286511    0.3574495681
H        5.6288079843   -3.3932810579   -1.2720540541
H        5.3787380899   -1.0227779858    0.4839440271
22   
torsion grid (135,)
C        1.7931287710   -0.3470850358   -0.9169306715
C        0.8983307451    0.6231060096   -0.4725704238
C        3.0841447909   -0.0996132085    1.1150744659
C        2.9004261956   -0.7061936744   -0.1350432616
C        1.1023933727    1.2258795876    0.7665666006
C        2.1861775279    0.8675404016    1.5693357125
C        3.8213637172   -1.7649512406   -0.6836965492
C        7.4481933335   -2.0747704706   -0.8722669664
C        6.1020487858   -2.7489091693   -0.6088678313
N        5.0930184420   -1.7813656171   -0.1839016746
O        3.4328795322   -2.5530279976   -1.5480715591
F        0.2300765204    2.1603501539    1.1910619900
Br       2.4244328680    1.6857264321    3.2747679810
H        1.6488152288   -0.8450660510   -1.8698438488
H        0.0390622761    0.9222080283   -1.0651982367
H        3.8979417629   -0.3917204442    1.7709995395
H        7.3629032836   -1.3302402465   -1.6699383345
H        7.8298872688   -1.5742476018    0.0257154719
H        8.1907432194   -2.8200732014   -1.1740010186
H        6.2110535514   -3.5287527563    0.1561943192
H        5.7168482920   -3.2288291154   -1.5098467187
H        5.3830224901   -1.0439178905    0.4432169562
22   
torsion grid (150,)
C        1.6745816971   -0.3889522961   -0.8241888111
C        0.7750629629    0.5570755347   -0.3391211609
C        3.0623970636   -0.0920337366    1.1368331128
C        2.8312005842   -0.7104435617   -0.0994839324
C        1.0258052950    1.1721556232    0.8853212628
C        2.1597951555    0.8502098156    1.6323318700
C        3.7535624471   -1.7447446245   -0.6894400979
C        7.4446621125   -2.0357217479   -0.7294604949
C        6.0532806631   -2.6641775721   -0.7483359324
N        5.0482863584   -1.7229037550   -0.2561290153
O        3.3481410854   -2.5531091096   -1.5270673590
F        0.1493890163    2.0828560158    1.3510918859
Br       2.4590438876    1.6826450312    3.3211209036
H        1.4960665817   -0.8969913569   -1.7659704364
H       -0.1222915083    0.8272766890   -0.8875771754
H        3.9178061347   -0.3567389365    1.7500883736
H        7.4864839705   -1.1528901309   -1.3756662487
H        7.7373060930   -1.7359615310    0.2840044004
H        8.1874516846   -2.7554149592   -1.0860126410
H        6.0370859184   -3.5760821809   -0.1379711161
H        5.7637715652   -2.9526904042   -1.7612327965
H        5.3576274464   -0.9688606163    0.3409956172
22   
torsion grid (165,)
C        1.6340638918   -0.4990379145   -0.7836262803
C        0.7335825412    0.4508560616   -0.3077856316
C        3.1116544412   -0.0465071549    1.0810942753
C        2.8348158851   -0.7445732161   -0.1024782144
C        1.0282831959    1.1461897473    0.8627474386
C        2.2082992037    0.9001377348    1.5664225201
C        3.7592195619   -1.7844708115   -0.6761105884
C        7.4775778711   -2.1221683740   -0.5688019893
C        6.0671816644   -2.6238337816   -0.8638145927
N        5.0693598537   -1.7172426020   -0.2916171103
O        3.3458937246   -2.6521514910   -1.4473892720
F        0.1504316218    2.0602883466    1.3191158708
Br       2.5672622595    1.8403828413    3.1855126472
H        1.4228749068   -1.0673459239   -1.6833571178
H       -0.1984242204    0.6635368849   -0.8226989944
H        4.0054398231   -0.2538440473    1.6605866062
H        7.6456379114   -1.1308835842   -1.0048471610
H        7.6645832738   -2.0627211461    0.5092991615
H        8.2165439455   -2.8047009709   -0.9978893600
H        5.9172625169   -3.6254771073   -0.4470106145
H        5.8974119685   -2.7026014680   -1.9425667098
H        5.4043881877   -0.8679546829    0.1425267192
22   
torsion grid (180,)
C        1.5616412592   -0.5428458392   -0.7181290744
C        0.6490663776    0.3839364227   -0.2202785702
C        3.1017318535   -0.0066421836    1.0731861342
C        2.7981543098   -0.7347543457   -0.0855507558
C        0.9711573090    1.1088874160    0.9248450329
C        2.1876197745    0.9169949770    1.5819635891
C        3.7344283812   -1.7515492596   -0.6794580419
C        7.4536043758   -2.1592360879   -0.4495119274
C        6.0597260648   -2.4979329270   -0.9689730448
N        5.0585037654   -1.6227720016   -0.3561162029
O        3.3211797416   -2.6558646087   -1.4067679382
F        0.0826089155    2.0007827893    1.4035270227
Br       2.5802580340    1.8974530667    3.1693257327
H        1.3319161633   -1.1342547731   -1.5982448872
H       -0.3110466706    0.5557684096   -0.6974924074
H        4.0272916061   -0.1744650755    1.6142004728
H        7.7327488187   -1.1279316604   -0.6963308885
H        7.5131896685   -2.2821367525    0.6369868624
H        8.1960312325   -2.8195096781   -0.9067395371
H        5.7955207363   -3.5320832850   -0.7325067452
H        6.0171483999   -2.4040143632   -2.0610323492
H        5.3793492952   -0.7281517292   -0.0091148083
