17   
torsion grid (-165,)
C        1.0671412308    2.2029284727    0.7895633401
C        0.0274936961    1.2479297662    0.6747193106
C        2.4262281776    2.1735537080    0.2076238916
C       -1.4870304905    3.6479578128    2.7206691318
C        4.4740982998    3.3087155773   -0.0153413850
N        0.6062369220    3.2121588170    1.5529672854
N       -1.0374261756    1.6765109118    1.3546888355
N       -0.6317129878    2.8527699632    1.8518190917
O        2.8460130509    1.2554586573   -0.4730725967
O        3.1353455186    3.2762844941    0.5216502013
Br      -0.0160416545   -0.3862331583   -0.2473924541
H       -1.5216455713    3.2032735637    3.7187589322
H       -1.0651071584    4.6505623565    2.7725628339
H       -2.4914513224    3.6755946256    2.2969356152
H        4.8987864912    4.2515632457    0.3279524731
H        4.4476842681    3.2708738734   -1.1068715812
H        5.0554976914    2.4631670357    0.3596339693
17   
torsion grid (-150,)
C        1.0493557693    2.1799508119    0.7683480166
C        0.0044438094    1.2332040672    0.6350806772
C        2.4110230386    2.1488121977    0.1921040450
C       -1.4987825795    3.6145060009    2.7120391371
C        4.4704414165    3.2684935198    0.0007918229
N        0.5907897247    3.1828320425    1.5410867120
N       -1.0618414382    1.6603149620    1.3138483897
N       -0.6512729537    2.8284523986    1.8270562790
O        2.8254860158    1.2403248171   -0.5045248071
O        3.1290462902    3.2380807217    0.5313385993
Br      -0.0448491588   -0.3882620535   -0.3089488933
H       -1.3299348860    3.3215194924    3.7518452813
H       -1.2498427974    4.6668800660    2.5779824965
H       -2.5373672654    3.4288253558    2.4404036721
H        4.9030055640    4.1994374935    0.3660152649
H        4.4483870063    3.2543504461   -1.0914082871
H        5.0416720399    2.4092493105    0.3598983799
17   
torsion grid (-135,)
C        1.0575526186    2.2057225439    0.7741972743
C        0.0044904292    1.2708071465    0.6236416198
C        2.4197010111    2.1719186017    0.1988538960
C       -1.4816308230    3.6410932301    2.7283530233
C        4.4902262296    3.2747254536    0.0330210695
N        0.6082930484    3.1978245194    1.5659673946
N       -1.0583841296    1.6949481818    1.3097997117
N       -0.6359513158    2.8484558416    1.8467583493
O        2.8276663972    1.2734335572   -0.5143684690
O        3.1475170961    3.2472735463    0.5604238752
Br      -0.0584127593   -0.3342861371   -0.3472103228
H       -1.1537150691    3.5238444009    3.7642337305
H       -1.4138682195    4.6898005709    2.4362407135
H       -2.5029937172    3.2805640689    2.6173938502
H        4.9312525643    4.1939986828    0.4171776255
H        4.4701900743    3.2821469866   -1.0592854602
H        5.0521814696    2.4029777420    0.3762819547
17   
torsion grid (-120,)
C        1.1110295988    2.1651468518    0.8775646038
C        0.2859268465    1.0593753815    1.1966065082
C        2.4134136792    2.1815241021    0.1766910990
C       -1.5874100430    3.7116082014    2.5093180868
C        4.1787250050    3.5151231216   -0.6211810668
N        0.4977630035    3.2732787761    1.3348885629
N       -0.8026925875    1.4958111674    1.8331795657
N       -0.6174427236    2.8227217838    1.8844679545
O        2.9663106313    1.1787613372   -0.2370078732
O        2.9068841986    3.4299730943    0.0548032428
Br       0.5299537255   -0.7703429379    0.8566111745
H       -1.1139844316    4.2457770252    3.3355857796
H       -1.9549753720    4.4279107499    1.7717027755
H       -2.4056971879    3.0954352343    2.8776124124
H        4.4284256122    4.5756377602   -0.6314098397
H        4.0956009371    3.1273101344   -1.6391602282
H        4.9367510420    2.9442213388   -0.0798647128
17   
torsion grid (-105,)
C        1.0993094434    2.1366582690    0.8708794810
C        0.2648097070    1.0319767560    1.1691887468
C        2.4018321751    2.1543356867    0.1704621413
C       -1.5978131731    3.6771279827    2.5070008314
C        4.1827110167    3.4859664602   -0.5954827773
N        0.4979436184    3.2409527678    1.3524110848
N       -0.8177703890    1.4648660221    1.8180160245
N       -0.6183133395    2.7881451423    1.8981654033
O        2.9422912009    1.1557330475   -0.2689403387
O        2.9104879699    3.3993256254    0.0795955890
Br       0.4941620119   -0.7931314907    0.7958299775
H       -1.0803929755    4.3754769339    3.1661315457
H       -2.1299748716    4.2321405967    1.7303426624
H       -2.2955691651    3.0626950766    3.0734822731
H        4.4448904168    4.5434037480   -0.5800917260
H        4.0942609867    3.1241191419   -1.6225297534
H        4.9343756473    2.8931615880   -0.0690385197
17   
torsion grid (-90,)
C        1.0801164433    2.0683447546    0.8655285322
C        0.2372343135    0.9646419709    1.1444751712
C        2.3832815922    2.0892238427    0.1665993249
C       -1.6164936240    3.5986909664    2.5113579729
C        4.1786985079    3.4200108859   -0.5663887467
N        0.4875163663    3.1679469047    1.3681230825
N       -0.8412599581    1.3934564993    1.8023090693
N       -0.6310041406    2.7129907185    1.9084325582
O        2.9134183438    1.0957158616   -0.2963265885
O        2.9052298434    3.3306120552    0.1059729019
Br       0.4556249932   -0.8555748967    0.7418752796
H       -1.0889032069    4.4352883454    2.9689231286
H       -2.3045693860    3.9701126928    1.7469940837
H       -2.1668645659    3.0338103841    3.2628159659
H        4.4521007429    4.4739189364   -0.5253241670
H        4.0870351863    3.0840870200   -1.6019246294
H        4.9237218438    2.8066987520   -0.0541888916
17   
torsion grid (-75,)
C        1.0594912284    1.9837342124    0.8581462235
C        0.2049569339    0.8823782544    1.1091461507
C        2.3681755295    2.0073068829    0.1701063496
C       -1.6347108523    3.4988175367    2.5258529888
C        4.1702971453    3.3417912432   -0.5390010446
N        0.4710286013    3.0786853050    1.3760374437
N       -0.8742813285    1.3074093050    1.7681536512
N       -0.6551908299    2.6227002903    1.9001296816
O        2.9022654006    1.0176213739   -0.2965273659
O        2.8910524294    3.2488766404    0.1217617180
Br       0.4099014155   -0.9309591651    0.6704318982
H       -1.1368701821    4.4395827631    2.7561448841
H       -2.4690507887    3.6743636588    1.8417139869
H       -2.0009444041    3.0248777655    3.4371911960
H        4.4432283832    4.3954958798   -0.4901939360
H        4.0878292506    3.0111082251   -1.5769870132
H        4.9109049145    2.7259929066   -0.0233626182
17   
torsion grid (-60,)
C        1.0598696775    2.0194882696    0.8475137226
C        0.1942574596    0.9233731782    1.0830293261
C        2.3732074819    2.0388902981    0.1685033119
C       -1.6211127091    3.5371930522    2.5364380609
C        4.1960184914    3.3626169208   -0.5076860230
N        0.4738652865    3.1159708173    1.3654952617
N       -0.8899777616    1.3534300603    1.7306556109
N       -0.6644969471    2.6667196375    1.8688620925
O        2.8981876144    1.0495836546   -0.3091518342
O        2.9116415334    3.2746193502    0.1436839710
Br       0.3870253853   -0.8878333770    0.6301594659
H       -1.2117295062    4.5457844883    2.5182863313
H       -2.5757924576    3.5040792055    2.0073578347
H       -1.7628174882    3.2026989465    3.5663338143
H        4.4821219050    4.4116911543   -0.4386236642
H        4.1156586796    3.0514567448   -1.5518684512
H        4.9255120512    2.7282739482    0.0012431841
17   
torsion grid (-45,)
C        1.0466836298    1.9876369450    0.8355415419
C        0.1713266415    0.8942002299    1.0466146820
C        2.3665959330    2.0067432983    0.1691510695
C       -1.6230906639    3.4953946427    2.5476887492
C        4.2012795751    3.3284964913   -0.4778073450
N        0.4613343207    3.0818234772    1.3586939273
N       -0.9190069798    1.3239270670    1.6840506784
N       -0.6885192792    2.6349929053    1.8371279061
O        2.8933517958    1.0194359685   -0.3106637334
O        2.9098405311    3.2404687967    0.1594860161
Br       0.3548298943   -0.9112705800    0.5675174012
H       -1.3668085109    4.5275020569    2.3131712909
H       -2.6360725023    3.2655112948    2.2156110187
H       -1.5424673106    3.3243770571    3.6243726133
H        4.4910140380    4.3757206567   -0.3969002452
H        4.1303931430    3.0265204778   -1.5253703302
H        4.9228066702    2.6867598795    0.0331956462
17   
torsion grid (-30,)
C        1.0345063306    1.9556696475    0.8234635288
C        0.1498091224    0.8654799814    1.0096253272
C        2.3590222522    1.9762099567    0.1659078504
C       -1.6292930282    3.4539876143    2.5521362487
C        4.2047591157    3.2955148628   -0.4539019750
N        0.4533667681    3.0449902971    1.3610649756
N       -0.9427462190    1.2926253125    1.6453542711
N       -0.7034944392    2.5994274043    1.8226730274
O        2.8838874390    0.9909106824   -0.3200225654
O        2.9081624398    3.2072834214    0.1728292367
Br       0.3219001723   -0.9323503036    0.4987473352
H       -1.5558279288    4.4627992907    2.1468334939
H       -2.6348431152    3.0564977136    2.4192598295
H       -1.3734050479    3.4619984699    3.6152534347
H        4.4988773308    4.3404375586   -0.3601534023
H        4.1402443654    3.0045177620   -1.5049756539
H        4.9193388420    2.6450966198    0.0558893591
17   
torsion grid (-15,)
C        1.0051581232    1.8718990117    0.8018193026
C        0.1124314608    0.7841335008    0.9617896476
C        2.3326146567    1.8966772576    0.1500597327
C       -1.6589494573    3.3598508542    2.5388923247
C        4.1878640894    3.2168093187   -0.4388438171
N        0.4309776548    2.9532270454    1.3622896490
N       -0.9781923574    1.2051431202    1.6050211387
N       -0.7286528382    2.5057208304    1.8139044182
O        2.8537788906    0.9175255742   -0.3519661094
O        2.8882359022    3.1243954340    0.1810233494
Br       0.2735668260   -1.0039426829    0.4140923121
H       -1.7721317930    4.3005606979    1.9986196494
H       -2.6109240501    2.8349925337    2.5989923763
H       -1.2774187169    3.5562181814    3.5441105194
H        4.4860028579    4.2588651612   -0.3275699736
H        4.1266832723    2.9423928067   -1.4945496114
H        4.8974471056    2.5554940377    0.0638818042
17   
torsion grid (0,)
C        1.0157644194    1.9170181747    0.8030900895
C        0.1125526709    0.8357803202    0.9460170912
C        2.3429023752    1.9391413045    0.1504685722
C       -1.6423266088    3.4090714990    2.5467064236
C        4.2154182350    3.2472706732   -0.4094614538
N        0.4544926923    2.9934503255    1.3855928161
N       -0.9703267364    1.2548289225    1.6035993011
N       -0.7059964219    2.5483446663    1.8370977907
O        2.8490997595    0.9658384691   -0.3775761156
O        2.9158701059    3.1577243122    0.2109766945
Br       0.2569857382   -0.9453927520    0.3719483588
H       -1.9396953000    4.2370778320    1.8999218749
H       -2.5089080318    2.8042615994    2.8077709529
H       -1.1669831916    3.8001152867    3.4485260803
H        4.5297153308    4.2812168425   -0.2704781105
H        4.1476785993    3.0029386503   -1.4721506276
H        4.9158818463    2.5616232801    0.0730262630
17   
torsion grid (15,)
C        1.0000354933    1.8793049435    0.7894878079
C        0.0883656957    0.8025700504    0.9120990378
C        2.3270044745    1.9045563553    0.1367454956
C       -1.6587634523    3.3640009668    2.5386160391
C        4.2138393468    3.2062712733   -0.3896666847
N        0.4494990239    2.9470347830    1.3978293708
N       -0.9892113809    1.2162219879    1.5817065670
N       -0.7122529467    2.5010827798    1.8456743321
O        2.8217780041    0.9393932069   -0.4164655309
O        2.9137403818    3.1146230142    0.2292926349
Br       0.2196283935   -0.9686902627    0.3051730544
H       -2.1286905189    4.0476916696    1.8270191199
H       -2.4140764772    2.7264127407    2.9950416364
H       -1.1265481968    3.9351576004    3.3002716901
H        4.5390333408    4.2330098089   -0.2247173215
H        4.1430408466    2.9896807833   -1.4581478850
H        4.9073269249    2.5013328531    0.0747732468
17   
torsion grid (30,)
C        0.9714051068    1.7830173957    0.7736762430
C        0.0528004514    0.7097525605    0.8749441490
C        2.2988751667    1.8125009926    0.1222821295
C       -1.6901655020    3.2526928778    2.5301413058
C        4.1956148688    3.1115051096   -0.3731970971
N        0.4271826943    2.8421823685    1.4022031115
N       -1.0222168369    1.1167281222    1.5522507305
N       -0.7367243533    2.3935859341    1.8429499238
O        2.7873899739    0.8566716306   -0.4522431472
O        2.8946224996    3.0157369779    0.2427019487
Br       0.1762958704   -1.0512430582    0.2373305327
H       -2.3257310289    3.7644221100    1.8021796362
H       -2.3035486406    2.6284937302    3.1789532952
H       -1.1326733108    3.9851055158    3.1133817020
H        4.5305513269    4.1303331689   -0.1808826030
H        4.1232433256    2.9244043245   -1.4471724361
H        4.8823460277    2.3878365675    0.0721146850
17   
torsion grid (45,)
C        0.9907607421    1.8779407830    0.7781545382
C        0.0547831529    0.8177804129    0.8573766430
C        2.3229480028    1.8963799430    0.1366594740
C       -1.6550190851    3.3548699483    2.5540286854
C        4.2358722000    3.1784109975   -0.3420062184
N        0.4592687156    2.9357766223    1.4200628754
N       -1.0179334173    1.2311881511    1.5342819323
N       -0.7146509621    2.4985354881    1.8461657747
O        2.8063086776    0.9374177411   -0.4371140106
O        2.9290631421    3.0938396485    0.2636230980
Br       0.1524184003   -0.9333142002    0.1888269756
H       -2.4476534863    3.6796079919    1.8748526006
H       -2.0895371878    2.7929015701    3.3814577649
H       -1.1030995595    4.2178162080    2.9236432864
H        4.5758592859    4.1958470752   -0.1512020065
H        4.1713103144    2.9869070033   -1.4156485662
H        4.9139577654    2.4522832186    0.1124603388
17   
torsion grid (60,)
C        0.9779492026    1.8520909193    0.7598758588
C        0.0363212420    0.7958234667    0.8228427943
C        2.3141625372    1.8705617330    0.1270564474
C       -1.6632286515    3.3145859818    2.5564059265
C        4.2419413473    3.1440914700   -0.3129227614
N        0.4445849765    2.9082324253    1.4030709117
N       -1.0427563162    1.2107635186    1.4883922247
N       -0.7388251172    2.4758338557    1.8078124282
O        2.7938333574    0.9190298732   -0.4620073010
O        2.9306585349    3.0592875615    0.2829231410
Br       0.1305371247   -0.9493989565    0.1387264759
H       -2.5953727614    3.4201365030    1.9974391531
H       -1.8683410170    2.8565521168    3.5262408048
H       -1.1883706780    4.2853663452    2.6884061033
H        4.5913192373    4.1532051017   -0.0965832794
H        4.1818053493    2.9783164295   -1.3911125469
H        4.9097243136    2.4005086876    0.1283432244
17   
torsion grid (75,)
C        0.9806843760    1.8875975799    0.7557340264
C        0.0267247482    0.8413562181    0.7953195912
C        2.3230144967    1.8982858268    0.1355992523
C       -1.6449659188    3.3462674392    2.5751277543
C        4.2652567019    3.1572771879   -0.2821447598
N        0.4510675343    2.9431506450    1.4027655948
N       -1.0563217466    1.2616016174    1.4510875384
N       -0.7437458412    2.5213185056    1.7840508487
O        2.7994426102    0.9438730181   -0.4513991876
O        2.9475505313    3.0815604446    0.3006024508
Br       0.1070157718   -0.8947598360    0.0867047383
H       -2.6572936628    3.2376085278    2.1843893446
H       -1.6187275301    3.0299011668    3.6211720004
H       -1.3092041448    4.3786154772    2.4889205868
H        4.6205936234    4.1629801715   -0.0597301308
H        4.2143603814    2.9947323671   -1.3612997963
H        4.9226431015    2.4071833660    0.1636881092
17   
torsion grid (90,)
C        0.9856773983    1.9171225612    0.7551715870
C        0.0200628373    0.8811888567    0.7732981017
C        2.3315707662    1.9224529233    0.1422153164
C       -1.6271411797    3.3762044151    2.5913247139
C        4.2863268542    3.1694992041   -0.2513129677
N        0.4635838587    2.9688618288    1.4142935328
N       -1.0622740416    1.3035958340    1.4292140810
N       -0.7379692473    2.5553025663    1.7820822300
O        2.8042710153    0.9709327327   -0.4524212247
O        2.9646194302    3.0987221659    0.3229960983
Br       0.0836541668   -0.8439855303    0.0367954072
H       -2.6529895557    3.0768199611    2.3798253440
H       -1.4088811255    3.2313180195    3.6529395514
H       -1.4675487147    4.4199691462    2.3218426762
H        4.6487572571    4.1697582721   -0.0161987192
H        4.2403501723    3.0187807875   -1.3324048678
H        4.9347573683    2.4091948478    0.1903206144
17   
torsion grid (105,)
C        1.0224815236    2.0174210559    0.7799871893
C        0.0445286376    0.9930554129    0.7795484745
C        2.3691344971    2.0182121259    0.1683198621
C       -1.5782078157    3.4845756360    2.6288377960
C        4.3378217433    3.2500847640   -0.2038983368
N        0.5134576001    3.0626169785    1.4595014194
N       -1.0317286759    1.4160994672    1.4454360046
N       -0.6914944391    2.6565901459    1.8232450947
O        2.8308958613    1.0709520131   -0.4414787103
O        3.0148972948    3.1844344008    0.3682488211
Br       0.0868431439   -0.7196841468    0.0128417322
H       -2.5687625191    3.0336511830    2.6003230505
H       -1.2143727902    3.5277542368    3.6585532545
H       -1.6032693188    4.4901659162    2.2071515962
H        4.7101078709    4.2431473508    0.0458643717
H        4.2914408836    3.1152742054   -1.2870586269
H        4.9780581326    2.4770120510    0.2274209044
17   
torsion grid (120,)
C        1.0299866126    2.0485430626    0.7798895172
C        0.0428813345    1.0333962934    0.7610121852
C        2.3765627110    2.0471498649    0.1679815162
C       -1.5666148936    3.5169307966    2.6342759659
C        4.3604366869    3.2626677859   -0.1756901358
N        0.5324468894    3.0841307490    1.4821956026
N       -1.0272455611    1.4520195840    1.4395457577
N       -0.6735485069    2.6802759888    1.8444434244
O        2.8255121820    1.1096824895   -0.4660348779
O        3.0373484804    3.1996199535    0.3963634138
Br       0.0705193542   -0.6666229888   -0.0341120882
H       -2.4846662035    2.9545232972    2.7948980190
H       -1.0952939263    3.7535914708    3.5903679503
H       -1.7781249418    4.4399928143    2.0907710716
H        4.7453909154    4.2445896576    0.0977794299
H        4.3113509980    3.1549142994   -1.2617546328
H        4.9913188256    2.4713314743    0.2358494438
17   
torsion grid (135,)
C        1.0348415860    2.0723489641    0.7786253562
C        0.0383486790    1.0667392437    0.7411864311
C        2.3814720610    2.0699444014    0.1669452010
C       -1.5576014701    3.5398781159    2.6374153987
C        4.3790944031    3.2706400430   -0.1482279213
N        0.5485904167    3.0974801621    1.5037422820
N       -1.0256336967    1.4795978470    1.4325994500
N       -0.6587237726    2.6949569070    1.8634899176
O        2.8195066533    1.1429907591   -0.4897600470
O        3.0555192741    3.2088939395    0.4228248040
Br       0.0517546373   -0.6194309496   -0.0831801620
H       -2.3730825040    2.9131845463    2.9947961642
H       -1.0083082598    3.9659874783    3.4779199634
H       -1.9502924744    4.3418642098    2.0074115050
H        4.7752010706    4.2413238452    0.1484577043
H        4.3285547957    3.1894648226   -1.2365340124
H        5.0010876861    2.4626130655    0.2439587139
17   
torsion grid (150,)
C        1.0429638693    2.1054474529    0.7814056361
C        0.0359469141    1.1110974022    0.7258486051
C        2.3902385948    2.0990613300    0.1715081391
C       -1.5446774937    3.5703787507    2.6488017976
C        4.4013796349    3.2831087355   -0.1196981350
N        0.5674467408    3.1219980598    1.5255150613
N       -1.0236478749    1.5222901199    1.4246378904
N       -0.6434782893    2.7242653227    1.8798448806
O        2.8190463470    1.1795518398   -0.5015803154
O        3.0764124909    3.2258031058    0.4485626798
Br       0.0336051196   -0.5610572863   -0.1265938547
H       -2.2262382026    2.9252156047    3.2021236361
H       -0.9475216472    4.1730787476    3.3326052157
H       -2.1128769871    4.2208637698    1.9783116917
H        4.8077895317    4.2438578698    0.1948626916
H        4.3515077448    3.2220604548   -1.2093489017
H        5.0138564165    2.4613359269    0.2586660261
17   
torsion grid (165,)
C        1.0305011221    2.0811288097    0.7654850104
C        0.0178765289    1.0931509270    0.6937438669
C        2.3795627716    2.0753754725    0.1599842405
C       -1.5555686450    3.5323470101    2.6458140933
C        4.4028979998    3.2466536870   -0.0966673190
N        0.5576453243    3.0915570605    1.5195444307
N       -1.0429776172    1.5026897064    1.3910744479
N       -0.6580201215    2.6967337037    1.8618814397
O        2.8034292052    1.1673325483   -0.5315746377
O        3.0753796572    3.1888112271    0.4655401267
Br       0.0099188828   -0.5680515363   -0.1798557864
H       -2.0557858397    2.9108324662    3.3893254243
H       -0.9538754353    4.2997079469    3.1306333428
H       -2.3003359196    3.9952315016    1.9930860313
H        4.8180909142    4.1948534810    0.2434804150
H        4.3562322541    3.2138518774   -1.1876899250
H        5.0055555384    2.4092377166    0.2626447565
17   
torsion grid (180,)
C        1.0362243834    2.1168520866    0.7638889097
C        0.0131663052    1.1414918851    0.6715587794
C        2.3900722280    2.1025401071    0.1696939691
C       -1.5390902273    3.5597522217    2.6664846929
C        4.4269751928    3.2552322856   -0.0643437927
N        0.5663786563    3.1263868200    1.5212134995
N       -1.0513512516    1.5578567831    1.3591835997
N       -0.6596287338    2.7448950801    1.8413058620
O        2.8094330345    1.1927230751   -0.5222832075
O        3.0942715507    3.2077339339    0.4863737869
Br      -0.0064235693   -0.5081137980   -0.2235503450
H       -1.8107651308    3.0058627803    3.5674815543
H       -0.9939313201    4.4651190772    2.9281668645
H       -2.4414920565    3.8081356329    2.1039118760
H        4.8485647196    4.1976108240    0.2840350813
H        4.3892303586    3.2282964793   -1.1558737332
H        5.0183514347    2.4101618005    0.2957833014
