27   
torsion grid (-165,)
C        0.7006234888   -3.6273991131   -6.0032975822
C        0.3412510598   -2.3506186728   -4.2925715667
C       -0.9111311272   -2.6836399420   -4.8482551906
C        0.4965698471    2.2707799954   -1.8974015773
C       -0.5730105759    1.8318025634   -5.2375320358
C       -0.6881115649    1.4152220148   -2.3523544106
C       -0.2408794677    0.4375334903   -4.7084945257
N        1.3233674092   -2.9670884327   -5.0400866226
N        0.6550418937   -1.7776727008   -3.0820810471
N        0.2223483532   -0.7031065403   -2.5607017037
N       -0.6487226973   -3.5030820659   -5.9368033235
N       -0.2929388263    0.3069873026   -3.2404119491
N       -2.2287913798   -2.4024330775   -4.4747643481
O       -3.1409356583   -2.8961858060   -5.1800669424
O       -2.4155688721   -1.6751416239   -3.4793983186
H        1.1923122060   -4.2107008644   -6.7721080967
H        1.0022312431    2.7485022046   -2.7419643922
H        0.1501943328    3.0574294106   -1.2187815956
H        1.2239219895    1.6506047669   -1.3666312244
H        0.0747485399    2.6087656145   -4.8247300022
H       -0.4290881231    1.8216513434   -6.3221983210
H       -1.6149781585    2.1018140137   -5.0493480756
H       -1.1807534860    0.9606922990   -1.4920205895
H       -1.4356186999    2.0149056541   -2.8709261184
H       -0.9397042452   -0.2680240525   -5.1615503168
H        0.7660960601    0.1392019594   -5.0242872313
H       -1.3699625080   -3.9260232335   -6.5097829072
27   
torsion grid (-150,)
C        0.6146890004   -3.6146214927   -6.1025451792
C        0.4082747259   -2.3469977253   -4.3605930849
C       -0.8895181280   -2.6799230426   -4.8024885094
C        0.2645133723    2.3117253653   -1.8858038629
C       -0.3035105405    1.8491680241   -5.2660008644
C       -0.7615102271    1.2957729017   -2.3906440453
C       -0.2630828366    0.4056914430   -4.7619096354
N        1.3203986417   -2.9567257969   -5.1961049459
N        0.8244570268   -1.7695231868   -3.1820880892
N        0.3945873184   -0.7041754660   -2.6388673624
N       -0.7229939191   -3.4924135771   -5.9152720148
N       -0.1887148404    0.2842271050   -3.2975479959
N       -2.1705552658   -2.4164371576   -4.3080492969
O       -3.1374487419   -2.9154257367   -4.9321115960
O       -2.2769542294   -1.7025771472   -3.2911778092
H        1.0365176778   -4.1940898075   -6.9145414578
H        0.6814760944    2.9115509154   -2.6991204210
H       -0.2090108238    2.9913443825   -1.1693744875
H        1.0844133702    1.7946656801   -1.3798451286
H        0.5712946939    2.4179884130   -4.9415438667
H       -0.3012563734    1.8259580949   -6.3599818477
H       -1.2051425245    2.3804257012   -4.9530808125
H       -1.1990366655    0.7501063555   -1.5540261533
H       -1.5842050717    1.7839880920   -2.9149422970
H       -1.1396124500   -0.1333788862   -5.1383150342
H        0.6223951950   -0.0898297024   -5.1670115828
H       -1.4917607898   -3.9185134551   -6.4201657562
27   
torsion grid (-135,)
C        0.5895651412   -3.5943965932   -6.1180505096
C        0.4353565815   -2.3160429836   -4.3771865745
C       -0.8740508943   -2.6816402909   -4.7572427610
C        0.1734889237    2.3087933797   -1.8911355068
C       -0.1674914994    1.8701280207   -5.2676792340
C       -0.8269642679    1.2749756564   -2.4112318793
C       -0.3473263599    0.4286261816   -4.7842919123
N        1.3207281554   -2.9140269612   -5.2489555519
N        0.8981249995   -1.7082280771   -3.2300225153
N        0.4502010443   -0.6513533073   -2.6842660654
N       -0.7402564593   -3.4963060637   -5.8726122482
N       -0.2322513756    0.2846219921   -3.3261563720
N       -2.1412560397   -2.4367315136   -4.2188065132
O       -3.1239262021   -2.9438389725   -4.8118985366
O       -2.2223764194   -1.7349073011   -3.1919281120
H        0.9868401419   -4.1737010002   -6.9424320524
H        0.5768990316    2.9281195237   -2.6964967535
H       -0.3178873231    2.9672213458   -1.1670409206
H        1.0043489923    1.8052100012   -1.3899107747
H        0.8140599146    2.2608805515   -4.9874843607
H       -0.2369635849    1.8776468504   -6.3598421798
H       -0.9361388678    2.5461841684   -4.8854627274
H       -1.2627814974    0.7148088161   -1.5828445158
H       -1.6546126374    1.7501181027   -2.9416000989
H       -1.3093160090    0.0260076402   -5.1250423925
H        0.4373422851   -0.1804043180   -5.2323092365
H       -1.5225078647   -3.9414328927   -6.3391302671
27   
torsion grid (-120,)
C       -2.2171292982   -2.9962980805   -2.5655203438
C       -0.4234674278   -2.0596518893   -3.3388073263
C       -1.1636828437   -2.5417425914   -4.4377150196
C       -0.9481957280    1.1516376313   -3.0625677122
C        1.7920721997    2.5765920400   -4.9527855969
C       -0.5630181536    0.6549311112   -4.4608873551
C        1.7589056208    1.1048388804   -5.3699468321
N       -1.1160476710   -2.3671887421   -2.1855010287
N        0.8756121108   -1.6163459277   -3.2599955983
N        1.4661051861   -0.7147508306   -3.9334690144
N       -2.2985325737   -3.1414132449   -3.9116868940
N        0.8548805168    0.2747728572   -4.5600044680
N       -0.9265703861   -2.5580258040   -5.8158047465
O       -1.7802436798   -3.1268559520   -6.5365103910
O        0.1036502208   -1.9992127639   -6.2404102785
H       -2.9837426545   -3.3637909069   -1.8945529770
H       -0.3468633984    2.0209633989   -2.7823757777
H       -2.0025495750    1.4464753696   -3.0625243798
H       -0.8140598012    0.3806035279   -2.3013604626
H        2.1152231579    2.6811149881   -3.9125476303
H        2.5029168865    3.1148920132   -5.5877808640
H        0.8193649027    3.0649782634   -5.0633352489
H       -1.2033933231   -0.1686214679   -4.7737756573
H       -0.7101054923    1.4502141661   -5.1934254315
H        1.4505111705    1.0107125939   -6.4179415798
H        2.7446954059    0.6504334904   -5.2729586563
H       -3.0003170309   -3.6093067809   -4.4739602746
27   
torsion grid (-105,)
C       -2.2057840493   -2.9577868196   -2.5130384030
C       -0.4220299361   -2.0156049761   -3.3032713822
C       -1.1462591933   -2.5431141354   -4.3916695582
C       -0.9906868788    1.1651498578   -3.1120252517
C        1.8634543765    2.5361252389   -4.8276961150
C       -0.6209900934    0.6573655956   -4.5113792701
C        1.6866882976    1.1357239495   -5.4194875141
N       -1.1173096721   -2.3004318962   -2.1456058454
N        0.8655553218   -1.5375039469   -3.2259395240
N        1.4348944359   -0.6506444501   -3.9364750173
N       -2.2755340637   -3.1433016094   -3.8549872484
N        0.7941314024    0.2707739240   -4.6350534404
N       -0.9017502396   -2.6011733378   -5.7681747281
O       -1.7533122349   -3.1907464526   -6.4750536123
O        0.1315889176   -2.0586767010   -6.2039204579
H       -2.9707487159   -3.3179873709   -1.8362780076
H       -0.3838005461    2.0336661259   -2.8423457584
H       -2.0435775018    1.4651576069   -3.1080013186
H       -0.8565015959    0.4014108766   -2.3441531189
H        2.2773460614    2.4777115091   -3.8166021683
H        2.5551047877    3.1124447127   -5.4507130823
H        0.9192080378    3.0878886014   -4.7844809690
H       -1.2705512893   -0.1646855282   -4.8126974641
H       -0.7713606820    1.4517298910   -5.2452198055
H        1.2827061029    1.1905996545   -6.4361268502
H        2.6424372702    0.6147968579   -5.4713358284
H       -2.9656407870   -3.6387743102   -4.4081067760
27   
torsion grid (-90,)
C       -2.1647357512   -2.9438795603   -2.5103828220
C       -0.3967085493   -1.9751267324   -3.3031430027
C       -1.0935896991   -2.5473277142   -4.3864423256
C       -1.0372548597    1.1728184636   -3.1794537306
C        1.9802521532    2.4738086705   -4.7349315239
C       -0.6669002857    0.6621150597   -4.5782383243
C        1.6350322929    1.1801053230   -5.4762443658
N       -1.0975518066   -2.2508625282   -2.1467802331
N        0.8742981053   -1.4524907416   -3.2206271532
N        1.4189230229   -0.5710516401   -3.9562012865
N       -2.2139307280   -3.1621243446   -3.8484443957
N        0.7509596485    0.2840789241   -4.7148739259
N       -0.8334513650   -2.6349284913   -5.7595070006
O       -1.6729166892   -3.2483668297   -6.4608047985
O        0.1998513939   -2.0952757309   -6.1965323203
H       -2.9279823456   -3.3080578603   -1.8338549437
H       -0.4325375276    2.0432639232   -2.9115825084
H       -2.0904518452    1.4718589591   -3.1798250173
H       -0.9052465613    0.4139287852   -2.4069145885
H        2.4608502460    2.2464169413   -3.7790570993
H        2.6712843611    3.0732735601   -5.3366853430
H        1.0915867066    3.0831606020   -4.5416225578
H       -1.3141729160   -0.1646099792   -4.8748600119
H       -0.8253959164    1.4554050329   -5.3115468070
H        1.1434626852    1.3888583882   -6.4309515788
H        2.5389643190    0.6098935425   -5.6908345896
H       -2.8847818879   -3.6873860026   -4.3978704047
27   
torsion grid (-75,)
C       -2.1402640718   -2.9672283674   -2.5640148562
C       -0.3924313295   -1.9655550329   -3.3596260924
C       -1.0611818168   -2.5792408936   -4.4372617589
C       -1.1082031575    1.1744813425   -3.2814590843
C        2.1274475429    2.3563497222   -4.6804575558
C       -0.7332059029    0.6407195120   -4.6705972643
C        1.5731527595    1.2230014048   -5.5465135290
N       -1.0965997591   -2.2371224717   -2.2046110680
N        0.8624264542   -1.4032063593   -3.2760412417
N        1.3827335353   -0.5162403471   -4.0212631868
N       -2.1692577772   -3.2141024031   -3.8978119641
N        0.6943060974    0.2957944680   -4.8103421879
N       -0.7854169628   -2.6851694432   -5.8064948779
O       -1.6026944686   -3.3321916529   -6.5036753449
O        0.2389215620   -2.1291863877   -6.2429961568
H       -2.8999084413   -3.3389857366   -1.8875768188
H       -0.5351970373    2.0745435029   -3.0431882645
H       -2.1720623146    1.4331659609   -3.2779253145
H       -0.9397870375    0.4417982563   -2.4907949059
H        2.6761934003    1.9434442676   -3.8299408302
H        2.8124969348    2.9748368593   -5.2697915948
H        1.3305961754    3.0039396301   -4.3010378025
H       -1.3593472240   -0.2108688181   -4.9405937014
H       -0.9204356282    1.4100886762   -5.4216315068
H        1.0004335765    1.6084603100   -6.3931701125
H        2.3899797792    0.6241969372   -5.9526373519
H       -2.8198459043   -3.7685789428   -4.4429463856
27   
torsion grid (-60,)
C       -2.1135239166   -2.9638408895   -2.5369583525
C       -0.3926085439   -1.9218258919   -3.3387167305
C       -1.0266321890   -2.5856367185   -4.4072748106
C       -1.2071153362    1.2330190158   -3.3320985665
C        2.3039943023    2.2525620713   -4.6041662857
C       -0.8023432102    0.6481269072   -4.6916342950
C        1.5062313643    1.3265608947   -5.5244406069
N       -1.1001198305   -2.1884416069   -2.1848695251
N        0.8442322538   -1.3202918113   -3.2578149638
N        1.3430022400   -0.4215956866   -4.0033037393
N       -2.1180863236   -3.2457050424   -3.8641105099
N        0.6425698865    0.3703109070   -4.7991321782
N       -0.7345478041   -2.7049761933   -5.7716268639
O       -1.5157261914   -3.4003589485   -6.4632598063
O        0.2664174684   -2.1091428601   -6.2106117658
H       -2.8675788640   -3.3448858186   -1.8594340429
H       -0.6799835329    2.1723180858   -3.1418651541
H       -2.2826994332    1.4374879734   -3.3367836652
H       -0.9993480310    0.5482747279   -2.5078802782
H        2.9352830052    1.6660312593   -3.9336435531
H        2.9442455060    2.9074491718   -5.2043982060
H        1.6433480300    2.8821245252   -3.9992775219
H       -1.3803939475   -0.2480960376   -4.9161009575
H       -1.0266524362    1.3625818240   -5.4847259596
H        0.8610578453    1.8966526369   -6.1948910880
H        2.1851858544    0.7404714834   -6.1492058917
H       -2.7438483988   -3.8348988406   -4.4017951585
27   
torsion grid (-45,)
C       -2.1182552562   -3.0210134646   -2.5624501820
C       -0.4250052749   -1.9007932376   -3.3173902663
C       -0.9884315646   -2.6072901224   -4.3994659615
C       -1.3861902934    1.2372720115   -3.4132388699
C        2.5121390100    2.0588131561   -4.7082993834
C       -0.8849299659    0.6295899395   -4.7290948219
C        1.4208780855    1.3710067854   -5.5278927185
N       -1.1591144723   -2.1901903023   -2.1854401258
N        0.7797382604   -1.2466049240   -3.2020262811
N        1.2749255171   -0.3385580858   -3.9410286407
N       -2.0624729403   -3.3180021777   -3.8849926159
N        0.5775342248    0.4435667971   -4.7411531216
N       -0.6432000094   -2.7228390626   -5.7501254745
O       -1.3504215425   -3.4779588319   -6.4585235126
O        0.3291471768   -2.0632481698   -6.1652776508
H       -2.8753970198   -3.4324163713   -1.9063828129
H       -0.9150722446    2.2082719334   -3.2325642737
H       -2.4691903388    1.3857920755   -3.4734088110
H       -1.1816665910    0.5898262052   -2.5582168170
H        3.2178669380    1.3321657780   -4.3043325198
H        3.0567191255    2.7580430746   -5.3512556988
H        2.0795812593    2.6204308338   -3.8741514792
H       -1.3953085571   -0.3078918379   -4.9449783036
H       -1.1103854734    1.2975889595   -5.5611518863
H        0.7508142058    2.1166063424   -5.9595785091
H        1.8603416822    0.8076557249   -6.3578938766
H       -2.6377196613   -3.9456310004   -4.4353106732
27   
torsion grid (-30,)
C       -2.1096630918   -3.0271152712   -2.6130866545
C       -0.4338435482   -1.8345270651   -3.2931434158
C       -0.9227660930   -2.5588704680   -4.4003290817
C       -1.5334383546    1.2453298280   -3.4400377263
C        2.6799322168    1.8830317131   -4.8514757723
C       -0.9265069376    0.6757739047   -4.7275767455
C        1.3574004569    1.4666579848   -5.4877364215
N       -1.2029077280   -2.1583433901   -2.1939946362
N        0.7397568474   -1.1383794867   -3.1274164660
N        1.2357103368   -0.2144097487   -3.8477493657
N       -1.9864364710   -3.3167010013   -3.9325031188
N        0.5409591175    0.5656888345   -4.6478554384
N       -0.5129958707   -2.6578602863   -5.7332831655
O       -1.1458340966   -3.4507841384   -6.4699801845
O        0.4398912152   -1.9465812725   -6.1090274601
H       -2.8762624905   -3.4715724698   -1.9903736013
H       -1.1163379078    2.2333916612   -3.2223546967
H       -2.6160664059    1.3483749742   -3.5652902465
H       -1.3530420200    0.5978150825   -2.5797486142
H        3.3491252614    1.0328221952   -4.7162703423
H        3.1669243048    2.6126422691   -5.5066009778
H        2.5147469724    2.3457863541   -3.8742880080
H       -1.3768817198   -0.2819224155   -4.9840793344
H       -1.1306151147    1.3438315323   -5.5656975588
H        0.7489540559    2.3555842377   -5.6767910043
H        1.5271322855    0.9726455278   -6.4518430749
H       -2.5112134955   -3.9662086365   -4.5072194477
27   
torsion grid (-15,)
C       -2.1178329366   -3.0218088201   -2.6049596304
C       -0.4492582872   -1.7957858860   -3.2427664788
C       -0.8818079022   -2.5459076135   -4.3566878842
C       -1.6099072134    1.2559629176   -3.4708084399
C        2.7352252175    1.7444281373   -4.9286030224
C       -0.9534328500    0.6831913572   -4.7321547825
C        1.3116403928    1.5311976265   -5.4267009424
N       -1.2481008435   -2.1254029483   -2.1664345450
N        0.6977050051   -1.0655428967   -3.0453590639
N        1.1974654067   -0.1430623756   -3.7665657594
N       -1.9423407835   -3.3241151012   -3.9155510403
N        0.5121310401    0.5997742129   -4.6070481350
N       -0.4235671700   -2.6526281858   -5.6727629458
O       -1.0145030559   -3.4671465222   -6.4209731567
O        0.5278075587   -1.9267914651   -6.0242668290
H       -2.8941003807   -3.4779831883   -2.0030273989
H       -1.2117354724    2.2506031180   -3.2474064184
H       -2.6886294139    1.3457179246   -3.6336557835
H       -1.4513817674    0.6176551687   -2.5994570070
H        3.3169092668    0.8220357163   -4.9616265076
H        3.2166760569    2.4867805862   -5.5734056360
H        2.7439906721    2.1136979941   -3.9000562749
H       -1.3792713464   -0.2845351103   -4.9933266503
H       -1.1398147580    1.3407158397   -5.5833073406
H        0.7776406183    2.4881667455   -5.4369518955
H        1.3163893473    1.1472358002   -6.4541306350
H       -2.4306951068   -3.9934716687   -4.4995019401
27   
torsion grid (0,)
C       -2.1485667347   -3.0148071511   -2.5851685995
C       -0.4789141353   -1.7726463217   -3.1882945279
C       -0.8645864706   -2.5452527568   -4.3039851288
C       -1.6656481726    1.2589982965   -3.4835282253
C        2.7440555443    1.6250745032   -4.9945929244
C       -0.9843303127    0.6749624490   -4.7264835839
C        1.2657278806    1.5772733174   -5.3535341975
N       -1.3061657274   -2.0996314005   -2.1326523162
N        0.6466489293   -1.0166329555   -2.9652820526
N        1.1510229959   -0.0981343135   -3.6886472574
N       -1.9275207198   -3.3323535567   -3.8852732518
N        0.4793273993    0.5981993939   -4.5788261140
N       -0.3636735705   -2.6655250188   -5.6034456077
O       -0.9254835791   -3.4934317127   -6.3597470052
O        0.5956444663   -1.9401272112   -5.9324440683
H       -2.9365107051   -3.4744195994   -2.0013036599
H       -1.2717649513    2.2555244809   -3.2607588731
H       -2.7405816232    1.3481579566   -3.6697459330
H       -1.5260500103    0.6286988720   -2.6032580727
H        3.2251135601    0.6590691276   -5.1603410580
H        3.2268576489    2.3724457113   -5.6325839744
H        2.8954513315    1.9034014749   -3.9496861023
H       -1.4015526464   -0.2975358763   -4.9851334902
H       -1.1572851734    1.3240335034   -5.5872933025
H        0.8094688860    2.5643156326   -5.2026133593
H        1.1413484747    1.3192836868   -6.4118696670
H       -2.3873345214   -4.0167614188   -4.4749565147
27   
torsion grid (15,)
C       -2.1848533183   -3.0069235347   -2.5822462409
C       -0.5111019773   -1.7535310896   -3.1492202173
C       -0.8511127612   -2.5460894380   -4.2651434581
C       -1.7107611793    1.2612456955   -3.4950917463
C        2.7400889761    1.5151410917   -5.0726506558
C       -1.0105440706    0.6693766504   -4.7240985338
C        1.2353718557    1.6196917003   -5.2778787072
N       -1.3676366429   -2.0760287665   -2.1159900365
N        0.5952645258   -0.9756589998   -2.9009278828
N        1.1043103005   -0.0583655841   -3.6211472472
N       -1.9183703192   -3.3391241237   -3.8702158343
N        0.4521734149    0.5940109989   -4.5611932913
N       -0.3084683756   -2.6788212225   -5.5472180479
O       -0.8457272359   -3.5155967676   -6.3116978278
O        0.6599106701   -1.9561584495   -5.8524860888
H       -2.9856650054   -3.4681003857   -2.0174773351
H       -1.3195960629    2.2586364031   -3.2715671881
H       -2.7821812474    1.3510561679   -3.7002303973
H       -1.5878965329    0.6363995237   -2.6085943570
H        3.1043372027    0.5249441958   -5.3563840025
H        3.2269096297    2.2637765425   -5.7061284465
H        3.0220863345    1.6960786389   -4.0342983761
H       -1.4230230413   -0.3058506904   -4.9816987263
H       -1.1735679794    1.3131361404   -5.5907803718
H        0.8723488171    2.6105292234   -4.9707496845
H        0.9971153870    1.5014018057   -6.3404799993
H       -2.3513729221   -4.0362881578   -4.4653049703
27   
torsion grid (30,)
C       -2.2230078522   -2.9942234438   -2.5890800298
C       -0.5457599288   -1.7295841877   -3.1180726474
C       -0.8376114669   -2.5422864921   -4.2322656553
C       -1.7609869093    1.2722208127   -3.5119375872
C        2.7164019628    1.4091726959   -5.1859875763
C       -1.0381090996    0.6705127666   -4.7233307076
C        1.2140859919    1.6623698160   -5.2030401954
N       -1.4322762646   -2.0473928206   -2.1094292398
N        0.5410459197   -0.9306239205   -2.8444998398
N        1.0538852419   -0.0122712507   -3.5581498817
N       -1.9088145939   -3.3414229269   -3.8623946391
N        0.4239266285    0.6026825954   -4.5425817223
N       -0.2513168679   -2.6868783745   -5.4946595209
O       -0.7601912705   -3.5340112813   -6.2669928919
O        0.7238467811   -1.9643137091   -5.7745879084
H       -3.0371155313   -3.4568577213   -2.0449436621
H       -1.3809847786    2.2751698645   -3.2945470705
H       -2.8296326674    1.3516384067   -3.7352100896
H       -1.6487795451    0.6592835328   -2.6158040112
H        2.9440037196    0.4281368304   -5.6110965851
H        3.2073783670    2.1777370281   -5.7918684232
H        3.1229075186    1.4470705753   -4.1747803835
H       -1.4415190127   -0.3104415276   -4.9745999619
H       -1.1943673410    1.3027777194   -5.5992313808
H        0.9748074739    2.6308575751   -4.7409949458
H        0.8622546664    1.6991948389   -6.2382025853
H       -2.3135027518   -4.0518467620   -4.4618091049
27   
torsion grid (45,)
C       -2.2526686756   -2.9876737699   -2.6182816017
C       -0.5746566292   -1.7080187666   -3.1056904707
C       -0.8178167979   -2.5370004197   -4.2187183607
C       -1.8167699820    1.2879445681   -3.5557478028
C        2.6709094830    1.2916713954   -5.3540124059
C       -1.0552409460    0.6741543861   -4.7373411728
C        1.2179061135    1.7001709423   -5.1330307625
N       -1.4901566397   -2.0253187945   -2.1237145376
N        0.4933536049   -0.8914490445   -2.8055452143
N        1.0104025769    0.0321310183   -3.5067875850
N       -1.8909567555   -3.3451550774   -3.8761459006
N        0.4031830693    0.6280845530   -4.5206566176
N       -0.1899012749   -2.6846994851   -5.4613114898
O       -0.6641674190   -3.5441648281   -6.2416377894
O        0.7848207209   -1.9529441600   -5.7156563800
H       -3.0787899323   -3.4545819029   -2.0964011511
H       -1.4608267880    2.3023210700   -3.3514055103
H       -2.8815404147    1.3416803827   -3.8041213786
H       -1.7135779596    0.6956002638   -2.6446428426
H        2.7215306393    0.3747854796   -5.9474143199
H        3.1890295967    2.0913931325   -5.8935363328
H        3.1845409062    1.1192844452   -4.4074018696
H       -1.4386565989   -0.3176714597   -4.9766930832
H       -1.2014859381    1.2843148582   -5.6298715079
H        1.1547582485    2.6067430641   -4.5155807380
H        0.7507475745    1.9243989989   -6.0946868569
H       -2.2668260482   -4.0669807908   -4.4807427761
27   
torsion grid (60,)
C       -2.2052441164   -3.0124952848   -2.7017874457
C       -0.5399845130   -1.6937478552   -3.1220688722
C       -0.7210113161   -2.5252621254   -4.2452727698
C       -1.8526713744    1.2711606361   -3.6521799582
C        2.6285531352    1.2113749622   -5.5581290973
C       -0.9997482668    0.6806135599   -4.7819517961
C        1.2957496587    1.7536067215   -5.0470778810
N       -1.4847069159   -2.0343697305   -2.1762345306
N        0.4982144658   -0.8567925672   -2.7785389256
N        1.0221211825    0.0843113966   -3.4510661134
N       -1.7864723676   -3.3599819828   -3.9446604526
N        0.4418762342    0.6901320734   -4.4736080955
N       -0.0409542964   -2.6553178666   -5.4616593363
O       -0.4563528753   -3.5304591893   -6.2576475499
O        0.9194758094   -1.8928406536   -5.6798190857
H       -3.0403512412   -3.4989572717   -2.2131027262
H       -1.5543081197    2.3027330483   -3.4417643701
H       -2.9039853880    1.2726593996   -3.9575229947
H       -1.7710482478    0.6927580398   -2.7297590478
H        2.4656078565    0.4433558539   -6.3188626962
H        3.2134995332    2.0280014836   -5.9945462002
H        3.2017662666    0.7698006757   -4.7406335596
H       -1.3308446242   -0.3263337675   -5.0342795290
H       -1.1152005133    1.2771155335   -5.6877642828
H        1.4579853184    2.5295605869   -4.2893602974
H        0.7317767494    2.2036072034   -5.8659982848
H       -2.1210821348   -4.0902434800   -4.5631805063
27   
torsion grid (75,)
C       -2.2175812191   -3.0350447430   -2.7420688498
C       -0.5480817032   -1.6924169058   -3.0627529466
C       -0.6534626098   -2.5238144707   -4.1957813197
C       -1.9119824329    1.2246763122   -3.7175833557
C        2.5026531371    1.1577755083   -5.6879756619
C       -0.9263415069    0.6791266940   -4.7580258634
C        1.3770886127    1.7756438007   -4.8589596607
N       -1.5426424053   -2.0472966280   -2.1748484301
N        0.4639539802   -0.8519140280   -2.6570568558
N        1.0112653817    0.1100146374   -3.2806571223
N       -1.7231730109   -3.3740802453   -3.9589341874
N        0.4718232731    0.7524885143   -4.2998353272
N        0.1005211512   -2.6411662007   -5.3679364471
O       -0.2388803748   -3.5330727884   -6.1807048246
O        1.0478763730   -1.8489073613   -5.5361049110
H       -3.0733848913   -3.5331397531   -2.3034018395
H       -1.6815671606    2.2672701858   -3.4780057542
H       -2.9280298839    1.1804662466   -4.1229775669
H       -1.8924114779    0.6455837600   -2.7920921768
H        2.1045295711    0.5848307422   -6.5298203553
H        3.1577347605    1.9470287359   -6.0726265115
H        3.0946451537    0.4800185416   -5.0685310079
H       -1.1858010316   -0.3386911259   -5.0458408011
H       -0.9738062950    1.2764989261   -5.6696976798
H        1.7911619209    2.3477433656   -4.0236563513
H        0.7713076086    2.4567393040   -5.4605129094
H       -2.0114573956   -4.1079963658   -4.5960705847
27   
torsion grid (90,)
C       -2.2957218683   -3.0102542738   -2.7773550420
C       -0.6006726067   -1.6810327450   -3.0062902820
C       -0.6408623403   -2.5231591943   -4.1353761984
C       -1.9269814965    1.2197603969   -3.7803442967
C        2.3419337214    1.1774860291   -5.7998975872
C       -0.8634538824    0.6782487282   -4.7428872191
C        1.4295139665    1.7643689845   -4.7217639245
N       -1.6511325101   -2.0204321117   -2.1788611179
N        0.3927592494   -0.8457009096   -2.5474102812
N        0.9784478895    0.1144937890   -3.1383357599
N       -1.7285591680   -3.3651295132   -3.9572411675
N        0.4946048890    0.7652805773   -4.1798406249
N        0.1846787078   -2.6556060833   -5.2561443345
O       -0.1028846010   -3.5579534008   -6.0771807064
O        1.1405589350   -1.8644570739   -5.3752687352
H       -3.1805388930   -3.4985672796   -2.3880339389
H       -1.7180943483    2.2627556198   -3.5232660349
H       -2.9093525364    1.1732666399   -4.2613625614
H       -1.9751271565    0.6401627511   -2.8562687408
H        1.7640626105    0.7845074001   -6.6416577419
H        3.0218102589    1.9507845359   -6.1738529187
H        2.9307504718    0.3553442135   -5.3870154109
H       -1.0935406633   -0.3409521415   -5.0493504945
H       -0.8438435876    1.2756290456   -5.6562877218
H        2.0218673741    2.1328516104   -3.8816347385
H        0.8405186069    2.6004725841   -5.1103151802
H       -1.9813723842   -4.1040554722   -4.6035507917
27   
torsion grid (105,)
C       -2.3731812190   -2.9824331543   -2.8266373222
C       -0.6584534809   -1.6672761558   -2.9788294366
C       -0.6432852649   -2.5231011053   -4.0986475679
C       -1.9038007743    1.2285210385   -3.8334494500
C        2.2030544942    1.2254312843   -5.9212143949
C       -0.8193941555    0.6638964228   -4.7589833104
C        1.4698660043    1.7208736552   -4.6729582863
N       -1.7548515987   -1.9898554796   -2.2058297444
N        0.3098264515   -0.8267338184   -2.4789916445
N        0.9399376665    0.1102647070   -3.0625250708
N       -1.7456683266   -3.3549384600   -3.9699975179
N        0.5215669381    0.7253849862   -4.1540473507
N        0.2413901576   -2.6785395699   -5.1703265202
O       -0.0163058204   -3.5816167199   -6.0007857278
O        1.2184365991   -1.9078480848   -5.2389172045
H       -3.2809931277   -3.4605646188   -2.4799609173
H       -1.6765021122    2.2642832684   -3.5629788700
H       -2.8668907205    1.2119965983   -4.3536365855
H       -2.0054705971    0.6473101201   -2.9150942972
H        1.5061912319    1.0051787190   -6.7360457404
H        2.9024965929    1.9932669889   -6.2688726361
H        2.7567934059    0.3109222710   -5.6984269823
H       -1.0593109815   -0.3502609351   -5.0763488123
H       -0.7575545675    1.2635982219   -5.6692256238
H        2.1764524887    1.9227980463   -3.8667354623
H        0.9188565444    2.6453693098   -4.8812600355
H       -1.9686077798   -4.0993920558   -4.6209515305
27   
torsion grid (120,)
C       -2.4421463438   -2.9668970333   -2.8936992981
C       -0.7193897573   -1.6560713667   -2.9737113777
C       -0.6459605521   -2.5280698405   -4.0790048796
C       -1.8732043240    1.2493004497   -3.8838544299
C        2.0896727182    1.3234214826   -6.0047998464
C       -0.7927222079    0.6439467892   -4.7884748600
C        1.4952876554    1.6807093346   -4.6409678496
N       -1.8551865619   -1.9670911896   -2.2548600129
N        0.2161399088   -0.8008532587   -2.4375616637
N        0.8867180756    0.1105115567   -3.0163536188
N       -1.7561721587   -3.3551440417   -3.9977058515
N        0.5425251514    0.6667242142   -4.1670306289
N        0.2915820789   -2.7023563417   -5.1026609662
O        0.0611071957   -3.6042569189   -5.9428418041
O        1.2829300435   -1.9481361587   -5.1235426295
H       -3.3675224103   -3.4396027398   -2.5885360282
H       -1.6159476006    2.2782178296   -3.6140396831
H       -2.8258615561    1.2633365581   -4.4228204043
H       -2.0136169819    0.6773211670   -2.9650540616
H        1.3210505862    1.2620318560   -6.7816487465
H        2.8072595438    2.0939542925   -6.3054767970
H        2.5997276481    0.3585165072   -5.9575456832
H       -1.0601128552   -0.3644115285   -5.1039136278
H       -0.7007472848    1.2361218024   -5.7005601944
H        2.2752651417    1.7414840749   -3.8818291779
H        0.9848516577    2.6519802941   -4.6833241771
H       -1.9456245265   -4.1079874423   -4.6496897276
27   
torsion grid (135,)
C       -2.4709778433   -2.9602748469   -2.8925349305
C       -0.7415877600   -1.6568842475   -2.9429340052
C       -0.6281611464   -2.5602288191   -4.0188500807
C       -1.8181818685    1.2492533001   -3.9258247198
C        1.9946891140    1.4461084689   -6.0617341398
C       -0.7480755571    0.5954854964   -4.8094193249
C        1.5389313335    1.6298078433   -4.6134844878
N       -1.9045711948   -1.9451938960   -2.2595000071
N        0.1717109712   -0.7825033581   -2.3959633227
N        0.8678584656    0.1040608366   -2.9802425613
N       -1.7441427014   -3.3806159652   -3.9581080210
N        0.5868697336    0.5917806794   -4.1835105625
N        0.3405689697   -2.7617304065   -5.0096002529
O        0.1236020639   -3.6737301409   -5.8427670079
O        1.3427175245   -2.0230752063   -5.0087343531
H       -3.4086366138   -3.4224921025   -2.6097170400
H       -1.5323553278    2.2742188230   -3.6700322351
H       -2.7631584455    1.2844323449   -4.4771488233
H       -1.9890432107    0.6982505287   -2.9995408824
H        1.1781193477    1.5793201082   -6.7775029785
H        2.7601287034    2.1927286159   -6.2964615991
H        2.4186013151    0.4488122748   -6.2060291256
H       -1.0415331626   -0.4117665387   -5.1054005392
H       -0.6389111468    1.1645578035   -5.7329175818
H        2.3844219889    1.5601721700   -3.9299024046
H        1.0778937100    2.6190383872   -4.4814249521
H       -1.9122618802   -4.1487572388   -4.5980985637
27   
torsion grid (150,)
C       -2.5391996946   -2.9093223148   -2.8896025802
C       -0.7760527582   -1.6531160448   -2.9376901119
C       -0.6515645702   -2.6029644737   -3.9695402630
C       -1.7588276826    1.2803572856   -4.0337546377
C        1.8834446857    1.7088343756   -6.0508800095
C       -0.6894378374    0.5493045583   -4.8557411725
C        1.5773145996    1.6311474719   -4.5558177656
N       -1.9662394425   -1.8829008425   -2.2803858859
N        0.1469102691   -0.7828501806   -2.3963769550
N        0.8641485665    0.0855908907   -2.9773539238
N       -1.7888244950   -3.3932550648   -3.9110570071
N        0.6341505576    0.5488120497   -4.2051172189
N        0.3407755430   -2.8607018743   -4.9241903770
O        0.1316435510   -3.8048980072   -5.7224163673
O        1.3523318521   -2.1361448415   -4.9269546821
H       -3.4973360792   -3.3354659454   -2.6191541922
H       -1.4618560867    2.3164203466   -3.8438695962
H       -2.6980097936    1.2920069051   -4.5959510438
H       -1.9470277306    0.7940708946   -3.0746378442
H        1.0406477777    2.0803838311   -6.6403506356
H        2.7148364702    2.4035329033   -6.2059984861
H        2.1768861239    0.7285937198   -6.4379363583
H       -1.0007415268   -0.4685782057   -5.0856349060
H       -0.5540367987    1.0461740751   -5.8153252105
H        2.4843353778    1.4236967045   -3.9893723055
H        1.1775259983    2.5925399453   -4.2031377562
H       -1.9560920045   -4.1839757564   -4.5232216396
27   
torsion grid (165,)
C       -2.5836926349   -2.8854659404   -2.8737891891
C       -0.7872337309   -1.6792459938   -2.9360349471
C       -0.6680975180   -2.6724325290   -3.9258299189
C       -1.6913952635    1.2766220188   -4.1744576452
C        1.7452509201    1.9275321990   -6.0106635030
C       -0.6178354891    0.4667442070   -4.9125137509
C        1.6419808612    1.5796819164   -4.5286455019
N       -1.9957185054   -1.8495589840   -2.2949322753
N        0.1539097813   -0.8193187493   -2.4077840814
N        0.8888296987    0.0306425237   -2.9916556124
N       -1.8273197632   -3.4294985748   -3.8599479405
N        0.6859592189    0.4868297640   -4.2259922118
N        0.3345973087   -2.9859255266   -4.8524605138
O        0.1237367511   -3.9611076444   -5.6116487900
O        1.3553003512   -2.2747563541   -4.8716176386
H       -3.5579928925   -3.2751075900   -2.6060935088
H       -1.3802448250    2.3193381798   -4.0561695860
H       -2.6199871519    1.2613209170   -4.7540012943
H       -1.9045577030    0.8653535018   -3.1853482205
H        0.8619761198    2.4508880393   -6.3873049458
H        2.5999492941    2.5963827654   -6.1507191859
H        1.9139276536    1.0335440724   -6.6191850796
H       -0.9420985853   -0.5602514083   -5.0659699685
H       -0.4513369201    0.8777524756   -5.9064977196
H        2.6065185016    1.2389568667   -4.1524984252
H        1.3625046613    2.4730592982   -3.9545696158
H       -2.0052761743   -4.2384929151   -4.4445745956
27   
torsion grid (180,)
C        0.7786793039   -3.6928076313   -5.9522344723
C        0.2875506237   -2.4277804118   -4.2656365124
C       -0.9153149208   -2.7449603764   -4.9270120885
C        0.6969481373    2.2183257303   -2.0574427791
C       -0.7923638719    1.7203611440   -5.2031068892
C       -0.5779273336    1.4119685263   -2.3191315869
C       -0.1749909417    0.4355020331   -4.6538623996
N        1.3235569704   -3.0460786676   -4.9336897300
N        0.5050535574   -1.8771038879   -3.0223220344
N        0.0976624450   -0.7893235043   -2.5148602505
N       -0.5705552657   -3.5575599183   -5.9967602250
N       -0.3558277542    0.2521286045   -3.2000405788
N       -2.2539016266   -2.4247984527   -4.6778615703
O       -3.1110339674   -2.8992771960   -5.4603826706
O       -2.5068230751   -1.6821068645   -3.7098840245
H        1.3283721541   -4.2741467024   -6.6821991349
H        1.1202291290    2.6262193565   -2.9807263903
H        0.4792272670    3.0564916496   -1.3872177988
H        1.4520437397    1.5841164104   -1.5841266664
H       -0.3391955816    2.6262037756   -4.7938951834
H       -0.6373252907    1.7347381313   -6.2862101134
H       -1.8700726887    1.7487769226   -5.0210746381
H       -0.9709360448    1.0097525655   -1.3852570342
H       -1.3583658791    2.0327113881   -2.7605715042
H       -0.6405913299   -0.3978114728   -5.1733890792
H        0.9005273628    0.3902054466   -4.8745415994
H       -1.2442347585   -3.9647985449   -6.6353882309
