19   
torsion grid (-165,)
C        1.7674439764   -1.2554153193   -0.1217855953
C        0.7748203911   -0.5009706484    0.5145350536
C        2.7739149626   -1.8520198030    0.6355330162
C        0.8210412364   -0.3595772851    1.9046013932
C        2.8280628409   -1.7222441479    2.0404856312
C        1.8262649658   -0.9506735858    2.6864767952
C        3.9374130658   -2.3782588637    2.7466374139
C        1.8073449938   -0.7371501816    4.1818711860
N        4.0180649317   -2.5988601745    4.0786671881
N        5.0301638525   -2.8515701367    2.1031545752
N        5.1923180254   -3.2297198736    4.2512444608
N        5.7962326661   -3.3764425298    3.0708527782
H        1.7562571176   -1.3787943345   -1.2035257864
H       -0.0202556948   -0.0284256952   -0.0594344218
H        3.5548392663   -2.4364781944    0.1591182065
H        0.0554736091    0.2324870651    2.4048185675
H        1.6677831281   -1.6801105622    4.7172303909
H        2.7649979361   -0.3473458143    4.5388573055
H        1.0064244655   -0.0402243030    4.4563581555
19   
torsion grid (-150,)
C        1.7453479698   -1.2792818619   -0.1321454637
C        0.7656727886   -0.5088351400    0.5041824160
C        2.7482290191   -1.8830202463    0.6261637021
C        0.8195883311   -0.3536433308    1.8931495371
C        2.8048616986   -1.7452882409    2.0284884783
C        1.8220590689   -0.9504429892    2.6730377877
C        3.9194833903   -2.3869569407    2.7407826407
C        1.8284563749   -0.7240087915    4.1668192971
N        3.9031902402   -2.8023329377    4.0265189430
N        5.1183924270   -2.6198869454    2.1598434958
N        5.1289719503   -3.3171782823    4.2336190788
N        5.8538755517   -3.2028737108    3.1210802048
H        1.7277045345   -1.4087840998   -1.2130240602
H       -0.0258522715   -0.0310324846   -0.0703582368
H        3.5228382484   -2.4758820683    0.1490761473
H        0.0663997563    0.2563276691    2.3906735848
H        1.6457360373   -1.6547449548    4.7101531722
H        2.8088620605   -0.3786052653    4.5087031648
H        1.0684243139    0.0156709971    4.4450738959
19   
torsion grid (-135,)
C        1.7240246260   -1.2941040614   -0.1354541514
C        0.7611293871   -0.5077772284    0.5057271131
C        2.7252523977   -1.9091343912    0.6187173440
C        0.8280967625   -0.3440359618    1.8939219038
C        2.7904120415   -1.7678575016    2.0176856035
C        1.8298569743   -0.9513845418    2.6651513483
C        3.9059661683   -2.4037077337    2.7384510826
C        1.8707291023   -0.7208045654    4.1578075727
N        3.8093977423   -3.0118222135    3.9393870697
N        5.1751612974   -2.4030983309    2.2762039321
N        5.0651365784   -3.4165614051    4.2139390143
N        5.8777779313   -3.0482775823    3.2266852075
H        1.6959801185   -1.4261364625   -1.2157320494
H       -0.0278195743   -0.0215538966   -0.0653425761
H        3.4883106772   -2.5128072927    0.1357351645
H        0.0898638710    0.2822581666    2.3935692425
H        1.6891036326   -1.6490638916    4.7056448321
H        2.8630648154   -0.3826885791    4.4732877785
H        1.1276630596    0.0289182115    4.4535065840
19   
torsion grid (-120,)
C        2.0450002536   -0.7189221028   -0.1287802266
C        0.8663235896   -0.3212523898    0.5093782332
C        3.0440467271   -1.3621512599    0.6074231724
C        0.7126166623   -0.5658029359    1.8793495298
C        2.8906596512   -1.6312345590    1.9777840986
C        1.7084963285   -1.2058523101    2.6301198714
C        4.0016570001   -2.2597234478    2.7199447368
C        1.5224461583   -1.4268999576    4.1131107495
N        3.8800717260   -3.3577858710    3.4922990015
N        5.2484934221   -1.7466462231    2.7605344715
N        5.1137774351   -3.5396270568    4.0110443819
N        5.9240950484   -2.5806730452    3.5800512577
H        2.1866745846   -0.5275287821   -1.1910243723
H        0.0771698533    0.1800621482   -0.0482789101
H        3.9709329640   -1.6662470332    0.1286579706
H       -0.1979120898   -0.2408357791    2.3814587239
H        1.5493783573   -2.4921577023    4.3566057592
H        2.3423547241   -0.9685280974    4.6771499142
H        0.5748995312   -0.9965180423    4.4566321538
19   
torsion grid (-105,)
C        2.0176088374   -0.7405432726   -0.1431300410
C        0.8503033877   -0.3314773003    0.5079504597
C        3.0288272101   -1.3733150890    0.5877060356
C        0.7151723255   -0.5556270398    1.8835626853
C        2.8974660379   -1.6165622941    1.9627409043
C        1.7241327701   -1.1859715760    2.6243550026
C        4.0014434970   -2.2501998874    2.7188415032
C        1.5704802278   -1.4027916554    4.1111375935
N        3.9238880694   -3.4771065817    3.2685758778
N        5.1577422338   -1.6256041622    3.0155054548
N        5.1026857181   -3.6215522898    3.9173353801
N        5.8303267286   -2.5240574607    3.7716951495
H        2.1413133532   -0.5663205369   -1.2105145761
H        0.0535302496    0.1623197157   -0.0456249183
H        3.9452422748   -1.6889549407    0.0958135927
H       -0.1888632463   -0.2257557255    2.3941455522
H        1.6006648176   -2.4693512222    4.3524552604
H        2.4033753389   -0.9433255616    4.6544682655
H        0.6305670451   -0.9751660145    4.4777573962
19   
torsion grid (-90,)
C        2.0097223738   -0.7717489581   -0.1495309174
C        0.8510285311   -0.3427855230    0.5040288845
C        3.0271611602   -1.3912614783    0.5849269395
C        0.7265904691   -0.5392513523    1.8848918262
C        2.9114561935   -1.5936239672    1.9668741809
C        1.7406408934   -1.1585095554    2.6278400706
C        4.0006480685   -2.2497482842    2.7296381958
C        1.5995649720   -1.3655272768    4.1171141421
N        4.0464133427   -3.5719749754    2.9770304941
N        5.0230604176   -1.5822195489    3.2959860811
N        5.1639075946   -3.7251468596    3.7285598648
N        5.7405906391   -2.5497822550    3.9173060964
H        2.1210990056   -0.6253863789   -1.2224044286
H        0.0503898070    0.1407718096   -0.0530416374
H        3.9335340392   -1.7289590934    0.0888486018
H       -0.1756932309   -0.2042300382    2.3951596814
H        1.6671359848   -2.4296182476    4.3658645593
H        2.4167988824   -0.8717823572    4.6531414133
H        0.6447361080   -0.9733564795    4.4845338167
19   
torsion grid (-75,)
C        2.0095661084   -0.8085492032   -0.1460264511
C        0.8589007587   -0.3495412950    0.5017677703
C        3.0259712258   -1.4157424247    0.5990994845
C        0.7388109839   -0.5104213527    1.8875366083
C        2.9214968695   -1.5676324936    1.9894398006
C        1.7504636387   -1.1195613043    2.6421242649
C        3.9981625438   -2.2489439579    2.7439302245
C        1.6026200903   -1.3004081392    4.1345185927
N        4.2615735668   -3.5659597136    2.6448244074
N        4.8598849800   -1.6116883302    3.5592667248
N        5.3316237162   -3.7478898076    3.4542455820
N        5.6879266380   -2.5914151526    3.9920044126
H        2.1141786747   -0.6971984306   -1.2237970017
H        0.0591307309    0.1250231504   -0.0641710578
H        3.9219970950   -1.7856371980    0.1076840162
H       -0.1622938788   -0.1630976606    2.3916793426
H        1.6827302618   -2.3593938297    4.4036556480
H        2.4080490047   -0.7871793491    4.6682708228
H        0.6372121383   -0.9196001639    4.4861445139
19   
torsion grid (-60,)
C        2.0121446949   -0.8501974782   -0.1404586722
C        0.8679742199   -0.3546773162    0.4924809330
C        3.0140476708   -1.4594640725    0.6203740824
C        0.7409360414   -0.4869068663    1.8805401128
C        2.9062734799   -1.5765864633    2.0161721865
C        1.7362822174   -1.0996014908    2.6540222872
C        3.9688245425   -2.2750423740    2.7657175492
C        1.5624454241   -1.2482693843    4.1474460875
N        4.4522040393   -3.4844345471    2.4155942106
N        4.6573554175   -1.7310455375    3.7899238463
N        5.4627350487   -3.7022957725    3.2838595570
N        5.5891986798   -2.6588849023    4.0954374130
H        2.1226061620   -0.7654904237   -1.2201368100
H        0.0789794476    0.1231103130   -0.0856736947
H        3.9028370127   -1.8617006776    0.1423008408
H       -0.1572510520   -0.1167053910    2.3735810429
H        1.6559163849   -2.2985610152    4.4450576775
H        2.3479421498   -0.7118772326    4.6867744408
H        0.5820667205   -0.8772653233    4.4672384672
19   
torsion grid (-45,)
C        2.0008332286   -0.8813741688   -0.1379988756
C        0.8673846834   -0.3633328608    0.4974323248
C        2.9997808719   -1.4937257313    0.6214355845
C        0.7517389027   -0.4790537310    1.8873718761
C        2.9027753907   -1.5971767124    2.0219140362
C        1.7436368878   -1.0946945826    2.6641860322
C        3.9744830402   -2.2924200190    2.7533909604
C        1.5620965050   -1.2148758838    4.1592664287
N        4.6360692485   -3.3584879631    2.2530535380
N        4.5039144726   -1.8806031316    3.9255325595
N        5.5884570409   -3.6230444920    3.1665527388
N        5.5150191930   -2.7390519295    4.1592873574
H        2.1056889788   -0.8096260728   -1.2192517477
H        0.0798661991    0.1185869265   -0.0792313484
H        3.8811338731   -1.9117321915    0.1439525083
H       -0.1374829767   -0.0915548478    2.3834159840
H        1.7005530069   -2.2504348643    4.4871670690
H        2.3170687123   -0.6337060778    4.6952400021
H        0.5623406498   -0.8777800813    4.4567207822
19   
torsion grid (-30,)
C        1.9906739132   -0.9029636855   -0.1401993191
C        0.8643186430   -0.3704501860    0.4970828997
C        2.9877336211   -1.5157010203    0.6186465468
C        0.7586902067   -0.4724254033    1.8880443797
C        2.8998695414   -1.6129749302    2.0227457143
C        1.7500605001   -1.0878936037    2.6673904246
C        3.9847249278   -2.2993176983    2.7395074651
C        1.5620481024   -1.1788978253    4.1635918828
N        4.7954233209   -3.2047859446    2.1462767137
N        4.3631414649   -2.0580812830    4.0145590988
N        5.6861825911   -3.5377097918    3.0949472757
N        5.4336832807   -2.8494708568    4.2080581124
H        2.0917577902   -0.8403711779   -1.2224676419
H        0.0768181367    0.1129999657   -0.0782455062
H        3.8649501265   -1.9418698698    0.1415035020
H       -0.1223899691   -0.0702922725    2.3870133647
H        1.6970538513   -2.2062364043    4.5158029577
H        2.3158280435   -0.5914378242    4.6941802616
H        0.5616860097   -0.8300042728    4.4459748014
19   
torsion grid (-15,)
C        1.9783858385   -0.9279190387   -0.1326238863
C        0.8554447036   -0.3866789046    0.5042030345
C        2.9765963194   -1.5374529636    0.6252615843
C        0.7602655259   -0.4763061684    1.8960288546
C        2.8958968235   -1.6285112242    2.0320651896
C        1.7533194820   -1.0870391293    2.6784137717
C        3.9953587464   -2.2994216369    2.7397834809
C        1.5646762200   -1.1500616707    4.1758763431
N        4.9408387420   -3.0228283555    2.0952804719
N        4.2340766860   -2.2555292270    4.0704826285
N        5.7741846316   -3.4361337682    3.0611344793
N        5.3557791737   -2.9758645999    4.2414005863
H        2.0759706073   -0.8737112473   -1.2156998295
H        0.0661047333    0.0944187359   -0.0705807358
H        3.8525785189   -1.9659010168    0.1483822366
H       -0.1144287614   -0.0633658829    2.3972986532
H        1.6591040242   -2.1754162814    4.5449146166
H        2.3427534108   -0.5878365863    4.6991522686
H        0.5801946545   -0.7537661711    4.4520750098
19   
torsion grid (0,)
C        1.9612755892   -0.9453314683   -0.1247299814
C        0.8400716793   -0.4030032552    0.5145374428
C        2.9636697703   -1.5491079727    0.6314146834
C        0.7542509892   -0.4819214493    1.9073283514
C        2.8896289291   -1.6356766900    2.0395693927
C        1.7523659028   -1.0857155261    2.6891951898
C        4.0006966130   -2.2926909230    2.7421185487
C        1.5739188581   -1.1248482644    4.1886659698
N        5.0700819333   -2.8057080946    2.0885480181
N        4.1128410995   -2.4722972445    4.0784282028
N        5.8528327366   -3.3107950561    3.0517750755
N        5.2824342812   -3.1127508121    4.2421024681
H        2.0535173634   -0.8975115418   -1.2085972250
H        0.0464566884    0.0726760046   -0.0588412511
H        3.8401055619   -1.9749642475    0.1532373545
H       -0.1154766114   -0.0619523162    2.4113518266
H        1.5867390540   -2.1516506813    4.5645597199
H        2.4015480105   -0.6269042598    4.7013808785
H        0.6289479394   -0.6451698551    4.4707722343
19   
torsion grid (15,)
C        1.9571724058   -0.9677818960   -0.1363123207
C        0.8357805182   -0.4234777468    0.5006304926
C        2.9619982025   -1.5650211204    0.6226221757
C        0.7536901129   -0.4888194432    1.8946365269
C        2.8879214857   -1.6436119941    2.0305385573
C        1.7547534225   -1.0844902516    2.6784284373
C        4.0035619919   -2.2841947498    2.7410335080
C        1.5905139808   -1.1017287430    4.1799869141
N        5.1769913928   -2.5815168388    2.1349822772
N        4.0017296112   -2.6898786914    4.0314153036
N        5.9119561223   -3.1785871935    3.0844713164
N        5.2104073376   -3.2475081602    4.2171563217
H        2.0471360275   -0.9279116639   -1.2206672376
H        0.0401709866    0.0458650369   -0.0752317408
H        3.8403855713   -1.9889635472    0.1461387055
H       -0.1129543315   -0.0608270983    2.3972567419
H        1.5195967063   -2.1240741442    4.5609644792
H        2.4639417118   -0.6729930373    4.6797005715
H        0.6939218854   -0.5413091154    4.4708404426
19   
torsion grid (30,)
C        1.9287891941   -0.9851847249   -0.1155868983
C        0.8178021614   -0.4297178983    0.5290220095
C        2.9376038577   -1.5841106058    0.6387380386
C        0.7478090343   -0.4808723965    1.9250161979
C        2.8717624597   -1.6541428211    2.0457235691
C        1.7538478669   -1.0763458172    2.7011201268
C        3.9940148505   -2.2776817949    2.7619244320
C        1.6214463049   -1.0790333771    4.2060266599
N        5.2337519291   -2.3759977094    2.2302871903
N        3.9187177573   -2.8978623337    3.9607084923
N        5.9404119642   -3.0643999525    3.1413379129
N        5.1558013324   -3.3816887107    4.1714576043
H        2.0082598077   -0.9522107334   -1.2009500410
H        0.0199415369    0.0401699356   -0.0432889015
H        3.8109458318   -2.0126971426    0.1566797932
H       -0.1091124190   -0.0389973408    2.4323182465
H        1.5301429254   -2.0966820168    4.5941865877
H        2.5184033981   -0.6691037323    4.6808646681
H        0.7499461860   -0.4898811865    4.5150897602
19   
torsion grid (45,)
C        1.9142258704   -1.0074653386   -0.1217819250
C        0.8111607724   -0.4396531957    0.5245196588
C        2.9250246144   -1.6065776718    0.6324960257
C        0.7477013547   -0.4743832931    1.9221609972
C        2.8608243683   -1.6648962312    2.0374848735
C        1.7560240691   -1.0682438053    2.6948042102
C        3.9825611885   -2.2750308540    2.7698275920
C        1.6519768751   -1.0605272963    4.2020429220
N        5.2677588858   -2.1734190729    2.3665908449
N        3.8556243492   -3.0999429555    3.8315542105
N        5.9539089330   -2.9447994580    3.2299490724
N        5.1127993648   -3.5022758905    4.0985425314
H        1.9872241321   -0.9829019753   -1.2077402049
H        0.0135934238    0.0300073733   -0.0484458906
H        3.7940606651   -2.0420052702    0.1480599336
H       -0.1016578783   -0.0183309683    2.4296386448
H        1.5506819729   -2.0757497267    4.5946118227
H        2.5652980266   -0.6601121339    4.6542778271
H        0.7980157180   -0.4557383956    4.5285690064
19   
torsion grid (60,)
C        1.8998938427   -1.0272129672   -0.1207228092
C        0.8125188534   -0.4356950066    0.5296964615
C        2.9083119726   -1.6355171840    0.6322577271
C        0.7574812952   -0.4543007351    1.9286063773
C        2.8512668630   -1.6791383170    2.0352390188
C        1.7644243566   -1.0571437663    2.6948296180
C        3.9675175283   -2.2887617154    2.7842953924
C        1.6901698480   -1.0429873218    4.2037718765
N        5.2628341002   -1.9845268578    2.5643245626
N        3.8267432159   -3.2989007379    3.6668817300
N        5.9430705498   -2.8283800251    3.3688808620
N        5.0913991410   -3.6134713386    4.0186462150
H        1.9639882051   -1.0125948956   -1.2073556688
H        0.0186445873    0.0414579948   -0.0422694961
H        3.7664366503   -2.0876258145    0.1428742372
H       -0.0803052654    0.0207122701    2.4379077348
H        1.6378853749   -2.0603147702    4.6012287378
H        2.5956651150   -0.5985515570    4.6314241325
H        0.8205587910   -0.4720076303    4.5484542015
19   
torsion grid (75,)
C        1.8648678277   -1.0500544349   -0.1300385724
C        0.8014895178   -0.4365964173    0.5387274987
C        2.8808977860   -1.6671743249    0.6074080986
C        0.7731257249   -0.4441722673    1.9386535663
C        2.8533050214   -1.6931363010    2.0094033487
C        1.7874177753   -1.0575904390    2.6862000183
C        3.9635475295   -2.3212387014    2.7613970456
C        1.7527911022   -1.0461886660    4.1963279079
N        5.2086389179   -1.8112936016    2.8200470813
N        3.8569362608   -3.4949673499    3.4128816883
N        5.8973044932   -2.7124644034    3.5595731139
N        5.0988883720   -3.7102156743    3.9068448150
H        1.9046537776   -1.0460326847   -1.2178471494
H        0.0033072449    0.0478526708   -0.0210489792
H        3.7183486467   -2.1399083759    0.1010728173
H       -0.0492966426    0.0432258010    2.4609978333
H        1.7376588475   -2.0665423730    4.5908582177
H        2.6566869734   -0.5754655801    4.5984498111
H        0.8771649249   -0.5026887058    4.5685566994
19   
torsion grid (90,)
C        1.8342462013   -1.0695458208   -0.1387372025
C        0.7910418094   -0.4337872031    0.5404123833
C        2.8617971587   -1.6795337074    0.5896115237
C        0.7904911236   -0.4179836075    1.9406287141
C        2.8707794716   -1.6678798459    1.9909947319
C        1.8153115342   -1.0264687070    2.6776973618
C        3.9666663915   -2.3211827522    2.7465611139
C        1.8065724669   -1.0059316027    4.1877227918
N        5.0717239275   -1.6764619932    3.1645812686
N        3.9413517649   -3.6094900012    3.1355344804
N        5.7669080284   -2.6241872052    3.8395467520
N        5.0993765907   -3.7660208127    3.8222097390
H        1.8483327925   -1.0907628250   -1.2269597487
H       -0.0156957121    0.0454245842   -0.0116038477
H        3.6784522937   -2.1776981043    0.0733299096
H       -0.0226291762    0.0762825776    2.4709663145
H        1.8155858375   -2.0257436548    4.5862872975
H        2.7084865239   -0.5178022052    4.5711847492
H        0.9256195158   -0.4808024402    4.5732806121
19   
torsion grid (105,)
C        1.8128240083   -1.0939656607   -0.1369259463
C        0.7815495431   -0.4399336345    0.5432010363
C        2.8480117396   -1.6910680711    0.5903471443
C        0.7978957523   -0.3991819141    1.9427985191
C        2.8822422307   -1.6431007212    1.9916505622
C        1.8291148630   -0.9971015016    2.6798106171
C        3.9681818707   -2.3195685617    2.7367826558
C        1.8215463551   -0.9603499403    4.1896960304
N        4.9056843680   -1.6674871144    3.4505438274
N        4.0708091809   -3.6577005607    2.8548142306
N        5.6352464935   -2.6566216394    4.0169464124
N        5.1383209943   -3.8339746969    3.6677991791
H        1.8103711982   -1.1412870165   -1.2244553698
H       -0.0316747164    0.0299982476   -0.0072167260
H        3.6517820960   -2.2101271126    0.0746545192
H       -0.0120392430    0.0994232585    2.4740185336
H        1.8663216612   -1.9754950133    4.5989390645
H        2.7055976415   -0.4395797323    4.5691022226
H        0.9199340435   -0.4659970163    4.5684367690
19   
torsion grid (120,)
C        1.8022652364   -1.1213350941   -0.1302654737
C        0.7768245372   -0.4482965003    0.5408762818
C        2.8378379070   -1.7071647672    0.6032580233
C        0.8007378784   -0.3829973642    1.9391181843
C        2.8835726249   -1.6292180768    2.0052945511
C        1.8315392589   -0.9706705112    2.6858225892
C        3.9687857531   -2.3149241453    2.7343817097
C        1.8120488027   -0.9042046140    4.1949441903
N        4.7561570443   -1.7254083741    3.6559659984
N        4.2317061531   -3.6320645554    2.6076453941
N        5.5551290802   -2.7208688859    4.0962696385
N        5.2393678195   -3.8531226222    3.4781947401
H        1.7943651433   -1.1920240536   -1.2165500574
H       -0.0372679783    0.0145201396   -0.0141978433
H        3.6352587235   -2.2440209614    0.0966489397
H       -0.0068794895    0.1252149398    2.4647805789
H        1.8929553043   -1.9073540549    4.6271229122
H        2.6719826301   -0.3449221239    4.5732746181
H        0.8874034508   -0.4377865109    4.5535342241
19   
torsion grid (135,)
C        1.8036346122   -1.1502579559   -0.1222431146
C        0.7844942441   -0.4542366470    0.5361665159
C        2.8299038046   -1.7363553552    0.6212063584
C        0.8082968926   -0.3687052565    1.9327638534
C        2.8746349341   -1.6393710424    2.0247457315
C        1.8294212835   -0.9554536464    2.6944548305
C        3.9599940682   -2.3277355258    2.7434736059
C        1.7932662603   -0.8548023667    4.2015961481
N        4.6128100228   -1.8408341021    3.8196281113
N        4.3910744582   -3.5644005549    2.4127329458
N        5.4912092171   -2.8087427342    4.1479722228
N        5.3540906158   -3.8363844647    3.3138990558
H        1.7982296958   -1.2370700255   -1.2074364821
H       -0.0230462408    0.0103797652   -0.0268413975
H        3.6224427142   -2.2911977523    0.1272182061
H        0.0062143649    0.1576659206    2.4489840479
H        1.8928964965   -1.8434873106    4.6611107608
H        2.6362122841   -0.2697888434    4.5783539832
H        0.8540901114   -0.3989752499    4.5360561204
19   
torsion grid (150,)
C        1.7979046360   -1.1793586218   -0.1191324428
C        0.7866776674   -0.4622772786    0.5300510319
C        2.8152973695   -1.7693297174    0.6307201189
C        0.8148413126   -0.3599679692    1.9246996191
C        2.8618888915   -1.6617760422    2.0359773782
C        1.8281945792   -0.9488279084    2.6964942259
C        3.9515002943   -2.3480418962    2.7456024531
C        1.7840537874   -0.8133049967    4.2005853854
N        4.4672933715   -1.9891288480    3.9418036842
N        4.5575361079   -3.4537563203    2.2563255324
N        5.4288949754   -2.8983569916    4.1846053229
N        5.4778958800   -3.7740690469    3.1808972273
H        1.7935657670   -1.2779675143   -1.2034024400
H       -0.0149393859    0.0064948366   -0.0379025994
H        3.6025948169   -2.3382907406    0.1453940255
H        0.0223612524    0.1864829704    2.4348578317
H        1.8629624291   -1.7908231065    4.6863368346
H        2.6353860283   -0.2375097440    4.5724485303
H        0.8512564124   -0.3298665372    4.5142038302
19   
torsion grid (165,)
C        1.7951407257   -1.2154940574   -0.1264509466
C        0.7932139081   -0.4742476639    0.5108699693
C        2.8010253794   -1.8125654220    0.6311965877
C        0.8237925792   -0.3543901295    1.9033409496
C        2.8473038357   -1.6936126555    2.0374217380
C        1.8268866122   -0.9486343939    2.6856266244
C        3.9413743674   -2.3720552111    2.7462674089
C        1.7777433724   -0.7780375179    4.1857883738
N        4.3138821261   -2.1642617572    4.0297279221
N        4.7209938056   -3.3071930611    2.1543716578
N        5.3537280068   -2.9937017954    4.2231240234
N        5.5930220113   -3.6781351907    3.1032679284
H        1.7927461916   -1.3264998416   -1.2095840164
H        0.0000390298    0.0005487617   -0.0638606552
H        3.5834061167   -2.3951516590    0.1548585368
H        0.0426348445    0.2149669708    2.4058456488
H        1.8155700975   -1.7446119944    4.6963948057
H        2.6491345880   -0.2292108222    4.5528927088
H        0.8634479042   -0.2479639577    4.4784184082
19   
torsion grid (180,)
C        1.7903505406   -1.2382957893   -0.1319720446
C        0.7881381213   -0.4927091466    0.5001417518
C        2.7958599893   -1.8319047935    0.6281145404
C        0.8229957718   -0.3621017137    1.8912220817
C        2.8426816872   -1.7077628384    2.0346127041
C        1.8264786188   -0.9514363774    2.6772984675
C        3.9456578010   -2.3727532685    2.7424958359
C        1.7823508147   -0.7559843910    4.1744905885
N        4.1611883200   -2.3691132731    4.0782396354
N        4.8977478178   -3.0862980173    2.0958688656
N        5.2747005735   -3.1011255002    4.2492604136
N        5.7132798970   -3.5279082486    3.0631871569
H        1.7877047043   -1.3563705926   -1.2143703150
H       -0.0055868263   -0.0215547532   -0.0768401565
H        3.5806244538   -2.4133496724    0.1546140479
H        0.0467229859    0.2165616733    2.3906060266
H        1.7304138775   -1.7137266232    4.6997368458
H        2.6972752711   -0.2827383847    4.5415138821
H        0.9174833781   -0.1411813910    4.4513528325
