16   
torsion grid (-165,)
C       -0.1299645521    1.3196382725   -0.9208802109
C        0.6686227987   -0.0281616684    1.1355150748
C       -0.8429529008   -0.0492585937    1.1048733176
C       -0.0273945312    0.0112954207   -0.1869635959
C       -1.2640981469    2.4260457832   -2.6828186020
O        0.4477543652    2.3500509454   -0.6357242321
O        0.0501326221   -1.1398557097   -0.9873107959
O       -1.0579258989    1.2257088939   -1.9077590888
H        1.1673300507    0.8803685697    1.4552716175
H        1.1793209828   -0.9575306880    1.3654563891
H       -1.3397339022   -0.9954452748    1.2975052905
H       -1.3807499439    0.8393283071    1.4223430658
H       -2.0123881573    2.1653806284   -3.4310188973
H       -0.3315050014    2.7339947442   -3.1608426799
H       -1.6241356175    3.2330648778   -2.0406785555
H       -0.7505710773   -1.1645717396   -1.5377957989
16   
torsion grid (-150,)
C       -0.0645638651    1.3041433812   -0.9669951931
C        0.6144168830    0.0108844519    1.1744067027
C       -0.8927025187   -0.0788292238    1.0327435922
C        0.0064178011    0.0115569141   -0.1893367577
C       -1.3061170984    2.4566963037   -2.6224095145
O        0.6835760142    2.2543897451   -0.8580499975
O        0.1911624701   -1.1363444437   -0.9821270567
O       -1.1459516426    1.2895166399   -1.7877406979
H        1.0520092234    0.9408382269    1.5218553055
H        1.1469355480   -0.8926254399    1.4530258512
H       -1.3581909766   -1.0439423461    1.2106970646
H       -1.4936828637    0.7849510672    1.3025157504
H       -2.1964293051    2.2671449891   -3.2217053682
H       -0.4307053257    2.5899095193   -3.2622236702
H       -1.4389986536    3.3474575366   -2.0042001762
H       -0.6154346004   -1.2556945527   -1.5112835364
16   
torsion grid (-135,)
C        0.2979354748    1.3982004147   -0.6054567826
C        0.6436211611   -0.3937876656    1.2442608941
C       -0.8013915457    0.0783262329    1.3620017311
C       -0.1094377261    0.0861750912    0.0350953932
C       -0.4867915852    3.3898589308   -1.5994499864
O        1.4459571789    1.7120686558   -0.8643795021
O       -0.5708624849   -0.8548276913   -0.9101430270
O       -0.7737324130    2.1616777328   -0.8974880375
H        1.4332877251    0.2397462767    1.6361385894
H        0.8257853531   -1.4619601022    1.3136154533
H       -1.5700203772   -0.6775973851    1.4887664672
H       -1.0007770567    1.0309910487    1.8426843180
H       -1.4538343511    3.8666972476   -1.7572236419
H       -0.0010711930    3.1762273299   -2.5545358638
H        0.1663641763    4.0277662885   -0.9992571299
H        0.2050806101   -1.1895600545   -1.3902809056
16   
torsion grid (-120,)
C        0.2798291362    1.3450987952   -0.6840337645
C        0.6148294681   -0.3231024974    1.2829005183
C       -0.8627125673    0.0625936222    1.3125359218
C       -0.1119190965    0.0645728748    0.0231626277
C       -0.4626878948    3.4207825068   -1.5269453587
O        1.3780262867    1.5283069252   -1.1784886018
O       -0.4552235272   -0.9459588778   -0.9010060211
O       -0.7414163253    2.2191956075   -0.7754408663
H        1.3420737250    0.3703491396    1.6947119221
H        0.8582057027   -1.3751103185    1.3969455979
H       -1.5879079778   -0.7349458358    1.4389906466
H       -1.1413991327    1.0193775335    1.7422115105
H       -1.3842729653    4.0014542146   -1.4975456369
H       -0.1965364612    3.1686226212   -2.5559531921
H        0.3594327250    3.9748281390   -1.0679430805
H        0.3617918509   -1.2060620992   -1.3597542534
16   
torsion grid (-105,)
C        0.2332792485    1.2814453151   -0.7696506972
C        0.5904114078   -0.2305862287    1.3075440776
C       -0.9116825446    0.0409074718    1.2663130230
C       -0.1226770517    0.0320172779    0.0017884265
C       -0.4221132680    3.4434601123   -1.4511275811
O        1.2380972318    1.3621212457   -1.4545181582
O       -0.3452304948   -1.0587823552   -0.8635582802
O       -0.6996813167    2.2492723356   -0.6859907502
H        1.2443997442    0.5373352930    1.7107506526
H        0.9108684530   -1.2538404599    1.4775665440
H       -1.5784072988   -0.8025849586    1.4137228146
H       -1.2755311147    0.9953325068    1.6317493484
H       -1.2619633311    4.1111072698   -1.2609629629
H       -0.3521130687    3.2009850048   -2.5137344159
H        0.5158348194    3.8967316214   -1.1222310742
H        0.4866215308   -1.2149191011   -1.3433129974
16   
torsion grid (-90,)
C        0.1717666152    1.2178707266   -0.8466279316
C        0.5632037726   -0.1278432559    1.3226288694
C       -0.9514609322    0.0130355066    1.2270106640
C       -0.1343495087   -0.0021990761   -0.0202409412
C       -0.3685679393    3.4517145499   -1.3791624209
O        1.0555617577    1.2227266812   -1.6867103181
O       -0.2327926166   -1.1608416901   -0.8126068502
O       -0.6465709194    2.2605410978   -0.6085973152
H        1.1362613849    0.7146101139    1.6996594867
H        0.9662367043   -1.1099745229    1.5487012750
H       -1.5503193040   -0.8745425812    1.4037352971
H       -1.4017781902    0.9528640546    1.5268411229
H       -1.1021440847    4.1871602825   -1.0502572301
H       -0.4793319605    3.2430250559   -2.4453436454
H        0.6471488354    3.8030022979   -1.1838103602
H        0.5772493319   -1.2011468897   -1.3508717327
16   
torsion grid (-75,)
C        0.1118710148    1.1612721076   -0.9068622476
C        0.5275795367   -0.0265239906    1.3360819929
C       -0.9854024369   -0.0187789015    1.1897723338
C       -0.1357248293   -0.0343622368   -0.0383940872
C       -0.3074709947    3.4473745264   -1.3145588371
O        0.8618508268    1.1154481591   -1.8684666733
O       -0.1115198685   -1.2372547634   -0.7617579529
O       -0.5750629275    2.2588956242   -0.5363719847
H        1.0157274112    0.8811755257    1.6790257808
H        1.0055068877   -0.9589915681    1.6184615400
H       -1.5137344106   -0.9442699499    1.3949350950
H       -1.5210681218    0.8940295182    1.4249403042
H       -0.9209476397    4.2295593384   -0.8683721593
H       -0.5862476447    3.2837917723   -2.3576229549
H        0.7520141601    3.7075518163   -1.2601081390
H        0.6327419830   -1.1689146269   -1.3863540414
16   
torsion grid (-60,)
C        0.0643590054    1.1224942901   -0.9446313569
C        0.4878428484    0.0525523358    1.3587466762
C       -1.0103876563   -0.0504122581    1.1554859839
C       -0.1122500416   -0.0558166149   -0.0439924055
C       -0.2505571892    3.4386222070   -1.2691418772
O        0.6628618596    1.0432171489   -2.0062827589
O        0.0179164579   -1.2786047884   -0.7166428955
O       -0.4799584631    2.2587893586   -0.4670441393
H        0.8995503415    1.0055148709    1.6768174881
H        1.0162416652   -0.8339424161    1.6939986460
H       -1.4803889356   -1.0045465922    1.3716621757
H       -1.6182055314    0.8296943975    1.3326857388
H       -0.7378223988    4.2521965068   -0.7325481348
H       -0.6894129433    3.3113612187   -2.2609451529
H        0.8206296727    3.6277933561   -1.3691688117
H        0.6596942551   -1.1289106698   -1.4346512065
16   
torsion grid (-45,)
C        0.0105403359    1.0981868868   -0.9602330501
C        0.5231053612    0.1126724672    1.3786886127
C       -0.9626108536   -0.0730557123    1.1697186872
C       -0.0460606731   -0.0625685439   -0.0265488670
C       -0.2674961196    3.4219831398   -1.2602440762
O        0.3867604171    0.9837255134   -2.1176810813
O        0.1598826732   -1.2901377229   -0.6700120868
O       -0.3624760404    2.2651588004   -0.4001292413
H        0.8858492517    1.0929781801    1.6703056164
H        1.0926825572   -0.7376953367    1.7393583289
H       -1.3849727905   -1.0457074942    1.4014431007
H       -1.6175015099    0.7785225944    1.3183491566
H       -0.5925273995    4.2634545144   -0.6491166706
H       -0.9176404969    3.3010724038   -2.1293613231
H        0.7625712045    3.5618141573   -1.5954691583
H        0.5800070295   -1.0804014968   -1.5247199782
16   
torsion grid (-30,)
C        0.0472325668    1.1003728945   -0.9519667806
C        0.4870779955    0.1311159717    1.4327157823
C       -0.9720905133   -0.0960801440    1.1135804366
C        0.0592131805   -0.0505433535   -0.0057835405
C       -0.2425210538    3.4225483888   -1.2540744419
O        0.2246704337    0.9559461505   -2.1532561452
O        0.4072016217   -1.2594888455   -0.6232936469
O       -0.1928038841    2.2870587122   -0.3623115594
H        0.8004482953    1.1193086411    1.7517785828
H        1.0495177343   -0.7032141388    1.8396439178
H       -1.3822046695   -1.0830362847    1.3020742726
H       -1.6604828827    0.7365246812    1.2144976443
H       -0.4469023314    4.2817165553   -0.6159165493
H       -1.0369980092    3.2904653281   -1.9917969261
H        0.7133543584    3.5414539790   -1.7687188171
H        0.3954001044   -1.0841461851   -1.5828242598
16   
torsion grid (-15,)
C        0.0493949256    1.1107248499   -0.9528697767
C        0.4501508958    0.1500565279    1.4586010581
C       -0.9769371802   -0.1295122757    1.0525221611
C        0.1341518464   -0.0332494299    0.0008950969
C       -0.2116551420    3.4374582015   -1.2458791517
O        0.0403936003    0.9467931062   -2.1636817586
O        0.5834465303   -1.2171811830   -0.5956192719
O       -0.0388229382    2.3144525289   -0.3534353919
H        0.7068544151    1.1462228386    1.8012803157
H        1.0143747217   -0.6644872985    1.9018219830
H       -1.3617651420   -1.1319221707    1.2100414841
H       -1.7005263778    0.6770789668    1.1167363113
H       -0.2757681802    4.3125814600   -0.5998913377
H       -1.1267581344    3.3202891216   -1.8307631217
H        0.6419980499    3.5171495192   -1.9221816259
H        0.3215810561   -1.1664524121   -1.5332290044
16   
torsion grid (0,)
C        0.0022238575    1.1243611163   -0.9462962081
C        0.4100837579    0.1716322437    1.4765216154
C       -0.9797006688   -0.1900412496    1.0104990917
C        0.1706422060   -0.0135547354    0.0087498875
C       -0.1610345939    3.4585031914   -1.2518523350
O       -0.1911225119    0.9435665947   -2.1383392899
O        0.7123764983   -1.1603244730   -0.5832015253
O        0.0846887420    2.3397494605   -0.3705433535
H        0.5924255992    1.1776199993    1.8373480038
H        1.0010689352   -0.6107141938    1.9423516154
H       -1.3113170670   -1.2144742581    1.1467689978
H       -1.7542664162    0.5699795902    1.0531509596
H       -0.0784438986    4.3450291891   -0.6237063037
H       -1.1590326728    3.3860459279   -1.6899951981
H        0.5835517512    3.4788470973   -2.0503706432
H        0.3279694287   -1.2162231495   -1.4767373449
16   
torsion grid (15,)
C       -0.0788661207    1.1531079855   -0.9240405178
C        0.3580649627    0.1917160072    1.4943090712
C       -0.9813961670   -0.2863989193    0.9815494890
C        0.1717358156    0.0128695116    0.0204490007
C       -0.0875952266    3.4857580769   -1.2777027758
O       -0.4578886092    0.9695368868   -2.0690238147
O        0.8301911333   -1.0681601803   -0.5818419490
O        0.1894032524    2.3670000256   -0.4051202563
H        0.4394482644    1.2040480319    1.8743186985
H        1.0023594724   -0.5405169802    1.9707734502
H       -1.2239826852   -1.3378207196    1.1006195442
H       -1.8250010698    0.3972486070    1.0152279684
H        0.1610010158    4.3739168704   -0.6975058469
H       -1.1414963894    3.4929935460   -1.5649339902
H        0.5306783446    3.4233140736   -2.1756658073
H        0.3634569532   -1.2486104723   -1.4170642947
16   
torsion grid (30,)
C       -0.1919093897    1.1975616112   -0.8843953169
C        0.2948750627    0.2088390189    1.5115607923
C       -0.9759629816   -0.4127155516    0.9632534389
C        0.1354171093    0.0452886611    0.0343176724
C        0.0044022759    3.5082054950   -1.3220947536
O       -0.7732469791    1.0396137198   -1.9440999218
O        0.9334750362   -0.9292327853   -0.5900299579
O        0.2786136417    2.3847479997   -0.4552217601
H        0.2509699832    1.2143582571    1.9161763012
H        1.0142132816   -0.4528389986    1.9836928058
H       -1.0956952711   -1.4871369489    1.0648546026
H       -1.8960244942    0.1637559869    0.9999572831
H        0.4376732425    4.3733261575   -0.8209590090
H       -1.0728616682    3.6347574877   -1.4520125385
H        0.4691744074    3.3518722396   -2.2979332211
H        0.4369996901   -1.2503999991   -1.3627184480
16   
torsion grid (45,)
C       -0.2991479196    1.2469059512   -0.8277145037
C        0.2244411884    0.2147549352    1.5345572214
C       -0.9653839362   -0.5265197587    0.9402482069
C        0.0939803302    0.0791717930    0.0525403110
C        0.0904284961    3.5085316628   -1.3792453226
O       -1.0752450983    1.1459160737   -1.7614176143
O        1.0163923635   -0.7721972333   -0.5888354012
O        0.3595846668    2.3807441242   -0.5176122491
H        0.0632261994    1.1949530344    1.9714205011
H        1.0054565240   -0.3790349615    1.9988861196
H       -0.9691122775   -1.6096670043    1.0175346349
H       -1.9435928870   -0.0557568666    0.9727888961
H        0.6970464159    4.3243380505   -0.9870241858
H       -0.9709569345    3.7656443769   -1.3493112304
H        0.3749884722    3.2736534911   -2.4073580880
H        0.5480073432   -1.2014353177   -1.3251093265
16   
torsion grid (60,)
C       -0.3734081313    1.2924511699   -0.7659231818
C        0.1504914462    0.2107362471    1.5574098144
C       -0.9556588949   -0.6110089612    0.9041892998
C        0.0677856032    0.1057971158    0.0677023315
C        0.1567046723    3.4919067275   -1.4378359908
O       -1.3203356463    1.2787500557   -1.5319196407
O        1.0881523959   -0.6383726864   -0.5619846033
O        0.4438690954    2.3513886346   -0.6006332982
H       -0.1073936152    1.1582885447    2.0198522521
H        0.9689423111   -0.3279766703    2.0245442034
H       -0.8704068464   -1.6921226039    0.9585790597
H       -1.9696787472   -0.2232151872    0.9134843273
H        0.9075795797    4.2380414037   -1.1792405085
H       -0.8490672553    3.8683248372   -1.2367650663
H        0.2329033378    3.2162290234   -2.4922925953
H        0.6796336415   -1.1292152999   -1.2948184339
16   
torsion grid (75,)
C        0.0431223964    1.2804250763   -1.0132823237
C        0.4288229744    0.1314140857    1.2828795927
C       -0.9967905630   -0.2094297841    0.8523776982
C        0.0536979560    0.0218646441   -0.1761753732
C        1.4406196441    2.8152700862   -2.1522137780
O       -0.9384099543    1.8983691328   -1.3716644471
O        0.4934317162   -1.1105597550   -0.8954872532
O        1.3154359036    1.6588151188   -1.2965223638
H        0.6211782776    1.1152243397    1.7012787601
H        1.0379509970   -0.6737025595    1.6830109021
H       -1.3254787788   -1.2365228432    0.9713138772
H       -1.7661435256    0.5480318459    0.9595239083
H        2.5117052853    2.9617279711   -2.2902427594
H        0.9894933935    3.6884018339   -1.6753560019
H        0.9482605393    2.6342400840   -3.1105129021
H        1.4434519923   -0.9942307433   -1.0650438375
16   
torsion grid (90,)
C        0.0661962068    1.3126038517   -0.9536480504
C        0.3580822949    0.1455017503    1.3208282573
C       -1.0167973041   -0.2621733602    0.8045717883
C        0.0748720842    0.0284707268   -0.1658161152
C        1.4402931269    2.7743637459   -2.2138545369
O       -0.8798682425    2.0595687852   -1.1035753520
O        0.6126774680   -1.0748716581   -0.8572982996
O        1.3132251294    1.5737785997   -1.4221543148
H        0.4730339926    1.1338412089    1.7564899283
H        0.9891703667   -0.6315256548    1.7414100576
H       -1.2985627429   -1.3057573704    0.8964930560
H       -1.8257214166    0.4575644760    0.8691419783
H        2.4856100780    2.8129486303   -2.5196430016
H        1.1799361948    3.6504479008   -1.6156080800
H        0.7844407748    2.7252028034   -3.0860105431
H        1.5437602432   -0.8706259023   -1.0474430733
16   
torsion grid (105,)
C        0.1119064724    1.3382583477   -0.8940750423
C        0.2861754797    0.1489224737    1.3627005603
C       -1.0305513202   -0.2981039082    0.7521786885
C        0.1121707921    0.0348930849   -0.1485757471
C        1.4244323264    2.7463401526   -2.2742714944
O       -0.7657849904    2.1787455236   -0.8591852162
O        0.7235236530   -1.0474216461   -0.8049024580
O        1.2905496382    1.5070004097   -1.5459046828
H        0.3378128671    1.1383251964    1.8071976293
H        0.9180565851   -0.6100611736    1.8133768664
H       -1.2808487279   -1.3519024260    0.8138858170
H       -1.8639469751    0.3956929118    0.7667782726
H        2.4067638912    2.7037005910   -2.7441482711
H        1.3590106546    3.5955210743   -1.5902663457
H        0.6390149341    2.8289470058   -3.0286559335
H        1.6320629739   -0.7795190843   -1.0222489444
16   
torsion grid (120,)
C        0.1779974801    1.3699516640   -0.8256210300
C        0.2150630852    0.1336527260    1.4096576869
C       -1.0391752371   -0.3183374257    0.6949750770
C        0.1646728798    0.0502922555   -0.1171925100
C        1.3933737349    2.7250164491   -2.3390081698
O       -0.6144402922    2.2749406478   -0.6419931597
O        0.8274362158   -1.0152791747   -0.7461630656
O        1.2538543405    1.4656713330   -1.6465600151
H        0.2185291182    1.1171310559    1.8690471244
H        0.8260622701   -0.6248054671    1.8887194906
H       -1.2738898563   -1.3774943113    0.7102154210
H       -1.8817108918    0.3635308598    0.6608574511
H        2.2881247144    2.6222556305   -2.9525365889
H        1.5068905615    3.5409039644   -1.6215759582
H        0.5168438076    2.9120511171   -2.9628720686
H        1.7207163236   -0.7101427910   -0.9760659862
16   
torsion grid (135,)
C        0.2661849667    1.4051205120   -0.7493867974
C        0.1460565428    0.1041829557    1.4520613927
C       -1.0424960393   -0.3220422407    0.6277231608
C        0.2300260197    0.0702235175   -0.0745453218
C        1.3439953096    2.7082371608   -2.4022335287
O       -0.4289101083    2.3574745825   -0.4448025235
O        0.9261280902   -0.9841711441   -0.6843162416
O        1.2134168243    1.4431108466   -1.7182597471
H        0.1144172623    1.0761372881    1.9336683520
H        0.7149170372   -0.6698443381    1.9571586532
H       -1.2749369128   -1.3810376934    0.5840853328
H       -1.8796873451    0.3623022284    0.5454587843
H        2.1317326039    2.5595106478   -3.1403914953
H        1.6173221700    3.4954731126   -1.6959822948
H        0.4030036169    2.9718495717   -2.8896422216
H        1.8191782158   -0.6671884741   -0.8967118052
16   
torsion grid (150,)
C       -0.4505252508    1.3382893010   -0.8123336882
C        0.7749071122   -0.0433446595    0.9656028005
C       -0.6914248620   -0.0723308759    1.3175157389
C       -0.2482051554    0.0164473310   -0.1404368392
C       -1.0635525164    2.4197196054   -2.8214771355
O       -0.3189177057    2.4193419616   -0.2665029250
O       -0.3225671419   -1.1364072128   -0.9368709276
O       -0.8280995856    1.1885237910   -2.1044690144
H        1.3324557574    0.8638857393    1.1705754190
H        1.3276769835   -0.9756191845    1.0184311260
H       -1.1222232607   -1.0254886753    1.6065921357
H       -1.1281928874    0.8150998678    1.7637698858
H       -1.3476303301    2.1186239086   -3.8295159301
H       -0.1543281952    3.0243098198   -2.8407810517
H       -1.8651189814    2.9896781721   -2.3461018078
H       -1.1425128905   -1.0906761207   -1.4548254881
16   
torsion grid (165,)
C       -0.3276667350    1.3365315511   -0.8428736551
C        0.7471720074   -0.0527293510    1.0338506579
C       -0.7444088490   -0.0549327477    1.2569535639
C       -0.1639136045    0.0153435184   -0.1590794043
C       -1.1424910220    2.4123626686   -2.7865362376
O       -0.0518393241    2.4166407903   -0.3538283582
O       -0.2068085264   -1.1356005553   -0.9588305754
O       -0.8970580997    1.1860956538   -2.0647547323
H        1.3008204805    0.8468471998    1.2793391341
H        1.2763548016   -0.9930912535    1.1482407073
H       -1.2172237417   -0.9988246357    1.5091218279
H       -1.2060655660    0.8404970546    1.6606039873
H       -1.5862561922    2.1082627351   -3.7342596285
H       -0.2045090509    2.9461333918   -2.9532077543
H       -1.8271603513    3.0522729037   -2.2252735944
H       -0.9972051365   -1.0757561551   -1.5202936400
16   
torsion grid (180,)
C       -0.2176790911    1.3289382593   -0.8818061569
C        0.7120935070   -0.0476997229    1.0891725039
C       -0.7946152723   -0.0428606456    1.1820879556
C       -0.0862886612    0.0125719629   -0.1768381484
C       -1.2098691167    2.4139289406   -2.7384179598
O        0.2037863498    2.3952288305   -0.4757357951
O       -0.0811246623   -1.1393647454   -0.9765127847
O       -0.9707421111    1.1946104532   -2.0032807765
H        1.2474501595    0.8515201063    1.3736208135
H        1.2242469485   -0.9879066514    1.2654315588
H       -1.2915553597   -0.9827280438    1.4018548777
H       -1.2876045470    0.8548485055    1.5422217532
H       -1.8043624874    2.1209079714   -3.6034684922
H       -0.2630805384    2.8578973797   -3.0532484708
H       -1.7552637279    3.1287186592   -2.1179661695
H       -0.8736502995   -1.1085584908   -1.5379424108
