20   
torsion grid (-165,)
C       -0.1893323938    2.8606431315    2.3918566860
C       -0.0254072795    0.8870908303    3.7215692398
C       -0.1205891957    2.2800962512    3.6564255078
C       -0.1111623908    0.7825854766    1.4383050445
C       -1.0258159157   -1.2275961082    0.1310549197
C        0.2607599317    0.5535171330   -1.1356724990
C        1.2841802635   -0.2922737206   -0.4511128934
C       -0.0763821805   -0.0769664452    0.2146105234
N       -0.1883796801    2.1122900903    1.2826446711
N       -0.0112880082    0.1415809929    2.6170551910
O       -0.9313894552   -2.1440998740   -0.6659007386
O       -2.0716329830   -1.1173250002    0.9876892934
Br      -0.1393093877    3.3444733677    5.2385900100
H       -0.2488189179    3.9399577356    2.2667140630
H        0.0489968653    0.3706636166    4.6767685357
H        0.3766863036    1.6309145856   -1.1242646162
H       -0.2491110149    0.1332744433   -1.9956067478
H        1.4660312483   -1.2921234180   -0.8301009551
H        2.1257681603    0.1998155439    0.0259620315
H       -2.6342346434   -1.8986579316    0.8255396421
20   
torsion grid (-150,)
C       -0.0071385596    2.8959611547    2.3674245828
C       -0.2123143938    0.9348938560    3.7091157219
C       -0.1258887652    2.3273735502    3.6345016606
C       -0.1024678276    0.8120193203    1.4281689884
C       -0.8774252142   -1.2914954039    0.1816630183
C        0.1925584634    0.5800413858   -1.1583690538
C        1.3163184016   -0.1451492740   -0.4918700134
C       -0.0362508640   -0.0540948542    0.2144530196
N        0.0002291348    2.1401354404    1.2647242467
N       -0.1914094081    0.1786648964    2.6113366132
O       -0.5915638199   -2.3130921417   -0.4156052049
O       -2.0629394199   -1.1320534968    0.8207585409
Br      -0.1551009039    3.4065491659    5.2064820280
H        0.0801328404    3.9727268182    2.2364377525
H       -0.2900631281    0.4247901297    4.6673968665
H        0.2041921872    1.6635970601   -1.1705436187
H       -0.3003002658    0.0943029776   -1.9939136579
H        1.5872791576   -1.1308426933   -0.8540882712
H        2.1163435733    0.4439121369   -0.0554113052
H       -2.5375735631   -1.9797175313    0.7242942173
20   
torsion grid (-135,)
C        0.1350923168    2.8842068980    2.3883931121
C       -0.3574306860    0.9690913584    3.7217406423
C       -0.1156773209    2.3424301588    3.6490060655
C       -0.1320404324    0.8144507855    1.4515440181
C       -0.8807890299   -1.3308208970    0.2867806736
C        0.0419655700    0.5702013029   -1.1432435423
C        1.2273826347   -0.1029333370   -0.5266716244
C       -0.0893927600   -0.0571586120    0.2435326889
N        0.1235244420    2.1230981192    1.2907952728
N       -0.3586973249    0.2050818286    2.6280317383
O       -0.4845646550   -2.4206542483   -0.0797137438
O       -2.1502544330   -1.1239517518    0.7182274589
Br      -0.1169336875    3.4330739636    5.2132737050
H        0.3451441546    3.9442822150    2.2603680505
H       -0.5447645524    0.4783532768    4.6748766409
H        0.0151920105    1.6535914083   -1.1682951907
H       -0.4740147268    0.0597704752   -1.9502412040
H        1.5222664943   -1.0814144825   -0.8898457162
H        2.0226747744    0.5256151186   -0.1399684992
H       -2.5822085652   -1.9994200427    0.7209940327
20   
torsion grid (-120,)
C        0.2776467101    2.8507030256    2.3895052739
C       -0.4324887994    0.9909264173    3.7035225294
C       -0.0794598637    2.3395921955    3.6382577574
C       -0.0933586290    0.7985657870    1.4505088237
C       -0.7854496842   -1.3882487365    0.3640350287
C       -0.0148212138    0.5479091429   -1.1429899306
C        1.2243101008   -0.0758035496   -0.5773991332
C       -0.0577643797   -0.0771391512    0.2470120154
N        0.2682714502    2.0836280708    1.2971559448
N       -0.4355438700    0.2198907625    2.6137690025
O       -0.2876430096   -2.4901483594    0.2475345741
O       -2.1136054046   -1.2031433826    0.5737896148
Br      -0.0771226289    3.4404975687    5.1952653957
H        0.5722143013    3.8913445804    2.2684733776
H       -0.7117496199    0.5246472992    4.6463028151
H       -0.0796206469    1.6299454940   -1.1734247869
H       -0.5482019970    0.0180709753   -1.9261897704
H        1.5441278061   -1.0432367453   -0.9493592920
H        2.0100317057    0.5865815311   -0.2301093660
H       -2.5007584690   -2.0936475563    0.6757748580
20   
torsion grid (-105,)
C        0.4124960196    2.8076790247    2.4136441345
C       -0.5354402519    1.0177542833    3.6740031566
C       -0.0603753146    2.3288957994    3.6372704676
C       -0.0720494728    0.7936103178    1.4459127236
C       -0.7268113729   -1.4117106723    0.4118227202
C       -0.1003268173    0.5663326926   -1.1441898514
C        1.1826256561   -0.0312676834   -0.6489505416
C       -0.0546228969   -0.0741558610    0.2373436007
N        0.4059795245    2.0437838551    1.3199173327
N       -0.5403893287    0.2499771676    2.5811716470
O       -0.1590414116   -2.4773162461    0.5355133691
O       -2.0794823721   -1.2969225791    0.3985182931
Br      -0.0536132544    3.4257295915    5.1970404969
H        0.7997594927    3.8199835480    2.3155357669
H       -0.9148391141    0.5788319074    4.5946163182
H       -0.1888204194    1.6472771175   -1.1610096005
H       -0.6633347628    0.0338524682   -1.9044790468
H        1.5098311069   -0.9844131903   -1.0507461738
H        1.9682545311    0.6472104421   -0.3346055672
H       -2.4310974242   -2.1911537764    0.5734082615
20   
torsion grid (-90,)
C        0.5430951884    2.7704925214    2.4321342395
C       -0.6326689819    1.0813852785    3.6389809140
C       -0.0387906314    2.3435271707    3.6278498567
C       -0.0550165857    0.7972232202    1.4448432665
C       -0.6826945411   -1.4260143585    0.4531878251
C       -0.1933618657    0.5892453061   -1.1343752722
C        1.1241917531    0.0077784970   -0.7143135949
C       -0.0634331279   -0.0677722368    0.2338447345
N        0.5358467642    2.0004404995    1.3429569146
N       -0.6427177688    0.3091192095    2.5491536352
O       -0.0823886786   -2.4187149779    0.8082967243
O       -2.0173555820   -1.4244991291    0.2035851477
Br      -0.0231155181    3.4464323030    5.1832542645
H        1.0205366930    3.7452990794    2.3535563398
H       -1.1069500263    0.6867680911    4.5353084318
H       -0.2967650692    1.6691933359   -1.1345020111
H       -0.7889832872    0.0582231607   -1.8700325106
H        1.4460816223   -0.9319215498   -1.1512550169
H        1.9148424578    0.6936243481   -0.4305070523
H       -2.3350215109   -2.3224406730    0.4208624129
20   
torsion grid (-75,)
C        0.6631715595    2.7177774516    2.4940931573
C       -0.7299446408    1.1542674749    3.6367521446
C       -0.0227433208    2.3568373051    3.6555087190
C       -0.0440703195    0.7915499275    1.4859789695
C       -0.6384042180   -1.4526148404    0.5190250573
C       -0.2883998705    0.6003871645   -1.0763955970
C        1.0570894235    0.0329250603   -0.7344639369
C       -0.0771567573   -0.0741626443    0.2747474292
N        0.6546482666    1.9372104441    1.4119330396
N       -0.7448476321    0.3744289802    2.5528180474
O       -0.0464825034   -2.3465608991    1.0866286393
O       -1.8906994188   -1.6073615275    0.0154128233
Br       0.0013012035    3.4695884674    5.2038425357
H        1.2272263416    3.6467453268    2.4374331566
H       -1.2942804660    0.8158826566    4.5034361865
H       -0.4038041717    1.6790657430   -1.0553456668
H       -0.9159093825    0.0726890742   -1.7866809187
H        1.3674613313   -0.8932462852   -1.2077593501
H        1.8533275038    0.7228665358   -0.4782066463
H       -2.1609743649   -2.5185973894    0.2418783804
20   
torsion grid (-60,)
C        0.7922432817    2.6515277275    2.5532250063
C       -0.8099838793    1.2451261232    3.6231289270
C        0.0118487318    2.3722063595    3.6758449636
C       -0.0405624142    0.7897788828    1.5193003724
C       -0.6201186581   -1.4666816401    0.5545232919
C       -0.3923135847    0.6247038863   -1.0228023817
C        0.9698917716    0.0577830336   -0.7629186032
C       -0.1083883476   -0.0735760564    0.3059527116
N        0.7694842978    1.8604925094    1.4779693230
N       -0.8418366711    0.4588579940    2.5450499382
O       -0.0955682587   -2.2657453161    1.3019527649
O       -1.7107768234   -1.7787944778   -0.1960939745
Br       0.0583703279    3.4944995136    5.2168937678
H        1.4454035844    3.5213967876    2.5214486785
H       -1.4548324593    0.9758660786    4.4573346996
H       -0.5086912361    1.7024221079   -0.9729077702
H       -1.0541643502    0.1092856402   -1.7094514321
H        1.2545805766   -0.8567411312   -1.2738215437
H        1.7784515021    0.7417630439   -0.5311959632
H       -1.9263477327   -2.7066449701    0.0208262578
20   
torsion grid (-45,)
C        0.9047797558    2.5531301988    2.6201843164
C       -0.8884358815    1.3198273954    3.5958957267
C        0.0398823711    2.3584510599    3.6965866449
C       -0.0482299066    0.7757339588    1.5415028873
C       -0.6079939348   -1.4874013398    0.5685697347
C       -0.4847440190    0.6312887770   -0.9844150113
C        0.8907213648    0.0760426188   -0.7889643481
C       -0.1414259009   -0.0834670361    0.3246088136
N        0.8641754074    1.7603585475    1.5454379908
N       -0.9388183434    0.5358202370    2.5179666600
O       -0.2080845360   -2.2006685136    1.4655190164
O       -1.4722562472   -1.9366231383   -0.3844016368
Br       0.1121960485    3.4770175244    5.2394821547
H        1.6413624047    3.3541589067    2.6240791040
H       -1.6048579096    1.1233612148    4.3911902374
H       -0.6100292451    1.7066371044   -0.9092763760
H       -1.1675524791    0.1210062392   -1.6534245427
H        1.1586582506   -0.8276028965   -1.3271010944
H        1.7031732750    0.7607200981   -0.5746225597
H       -1.6422984137   -2.8731070971   -0.1658662232
20   
torsion grid (-30,)
C       -0.5659969489    1.1278588966    3.5775842558
C        0.7244802448    2.7549542757    2.4041776703
C        0.0940495618    2.3596476984    3.5823311900
C        0.0801997871    0.7985346646    1.4105018523
C        0.1948278119   -1.5338312012    0.4528599463
C       -0.8755232801    0.4117582795   -0.9460605108
C        0.6091429787    0.4387736602   -1.1205765095
C        0.0235225670   -0.0713063155    0.1957913305
N       -0.5817290116    0.3543145092    2.4922717930
N        0.7218198468    1.9726676668    1.3193585132
O        0.8485579710   -2.0108456903    1.3580391170
O       -0.3950783517   -2.3112343592   -0.5011419880
Br       0.1158323205    3.4646209094    5.1365629549
H       -1.0950450881    0.7673464663    4.4577073394
H        1.2413045254    3.7097584960    2.3312667113
H       -1.3834666309    1.3548583067   -0.7708459426
H       -1.4521662743   -0.3442182099   -1.4658711028
H        1.0593183109   -0.3081396809   -1.7656491368
H        1.1258928280    1.3890900058   -1.0562114944
H       -0.1512165839   -3.2299137860   -0.2789646023
20   
torsion grid (-15,)
C       -0.7032809506    1.2337905490    3.5122938058
C        0.9209224940    2.6384808123    2.4724114788
C        0.1402851840    2.3459404060    3.5882709767
C        0.0633994901    0.8095339142    1.4016544193
C        0.2349542468   -1.5121770901    0.4540083876
C       -0.9871035585    0.3494611469   -0.9148906955
C        0.4837532717    0.4804822150   -1.1516173610
C       -0.0078309446   -0.0644087882    0.1870460641
N       -0.7487243404    0.4738823990    2.4186986091
N        0.8855139206    1.8672750688    1.3788695359
O        0.7209398055   -1.9673595077    1.4700144641
O       -0.1048014543   -2.3059140175   -0.6040615910
Br       0.2047624810    3.4315367256    5.1548732305
H       -1.3538924233    0.9608847601    4.3409745589
H        1.5857093322    3.4997142906    2.4556754351
H       -1.5585086157    1.2508089946   -0.7162486794
H       -1.5280455296   -0.4484558910   -1.4103605777
H        0.9573009807   -0.2315829192   -1.8181139671
H        0.9371699490    1.4638321553   -1.1071059903
H        0.1409146095   -3.2129823633   -0.3414352156
20   
torsion grid (0,)
C        0.9930162593    1.2627451881    3.4463435894
C       -0.7880051375    2.5936216502    2.5779566832
C        0.1092458912    2.3314297800    3.6122319628
C        0.0558841792    0.8207456795    1.4100349973
C       -0.6965198481   -1.3544859325    0.4510070417
C       -0.1127484452    0.5757870884   -1.1770142429
C        1.1872490032   -0.0462547188   -0.7673931315
C        0.0064265452   -0.0647336497    0.1995096548
N        0.9693335385    0.5112394168    2.3438649918
N       -0.8151036305    1.8371667585    1.4748983097
O       -1.1891364527   -1.6857394888    1.5121595747
O       -0.7388823057   -2.1586025329   -0.6507936999
Br       0.1410340423    3.4026918726    5.1895755370
H        1.7288663248    1.0139620738    4.2085362422
H       -1.4932343234    3.4202392570    2.6357662483
H       -0.1998488979    1.6569422215   -1.1750124508
H       -0.7229777691    0.0576034606   -1.9078036824
H        1.4719066838   -0.9937599694   -1.2108992396
H        2.0108300053    0.6016663288   -0.4845687332
H       -1.2155729889   -2.9632133944   -0.3724784395
20   
torsion grid (15,)
C        0.7528637858    1.0754781174    3.5920056523
C       -0.4668552321    2.7914427571    2.4696509072
C        0.1707258569    2.3459890079    3.6251768098
C        0.0238532371    0.8087847527    1.4426488805
C       -0.5988853600   -1.4293455646    0.4825847995
C       -0.3265362845    0.5549963064   -1.1294317030
C        1.0667602366    0.1106112657   -0.8167623035
C       -0.0342248058   -0.0712338525    0.2318225028
N        0.6881699426    0.3134328732    2.5008660542
N       -0.5439264512    2.0206996455    1.3779967842
O       -1.2236818498   -1.7593274659    1.4707265627
O       -0.3856755182   -2.2874437844   -0.5581121775
Br       0.2631030574    3.4344668294    5.1884021846
H        1.2834165056    0.6747990938    4.4536586288
H       -0.9248034775    3.7771737077    2.4191226671
H       -0.5569784617    1.6137219847   -1.1054901700
H       -0.9091373586   -0.0428963745   -1.8212116039
H        1.4467457854   -0.7900911986   -1.2848856956
H        1.8087673327    0.8689173452   -0.5869773349
H       -0.8358047056   -3.1171680968   -0.3109258197
20   
torsion grid (30,)
C        1.0197870510    1.2322534071    3.5937678926
C       -0.7105689144    2.5656398661    2.6353315693
C        0.1530653118    2.3231659063    3.7017111482
C        0.1235883401    0.7327487656    1.5516911329
C        0.3009706398   -1.6057043262    0.6182831958
C       -0.7107249416    0.2139311803   -0.8668869314
C        0.7616979495    0.4664209452   -0.9254231789
C        0.1541503198   -0.1441968250    0.3412054029
N        1.0122646714    0.4455301667    2.5178436916
N       -0.7290132719    1.7679067592    1.5620459230
O       -0.1046324266   -2.1710371021    1.6132627514
O        0.8714287249   -2.2858333394   -0.4184602816
Br       0.1645257884    3.4472173424    5.2422738098
H        1.7334741421    0.9978312014    4.3812868418
H       -1.3988145603    3.4084414191    2.6442506371
H       -1.3801194021    1.0535230348   -0.7210460005
H       -1.1065919088   -0.6201306604   -1.4363701162
H        1.3826197271   -0.1838161564   -1.5302700422
H        1.1057962436    1.4912364066   -0.8283036578
H        0.8407851318   -3.2274624609   -0.1631446084
20   
torsion grid (45,)
C        0.9181766594    1.1430318845    3.6469220025
C       -0.5750661458    2.6529119297    2.5603157934
C        0.1789458990    2.3273206196    3.6872895807
C        0.1179118652    0.7225431836    1.5479204824
C        0.3340693708   -1.6167769777    0.6190355075
C       -0.7907004640    0.1618444310   -0.8317180621
C        0.6690780935    0.4691936159   -0.9467990795
C        0.1318495577   -0.1570733255    0.3421414274
N        0.8950795391    0.3468125181    2.5770217476
N       -0.6092883980    1.8495845860    1.4932116536
O       -0.2343523560   -2.2377937072    1.4933538160
O        1.1615862759   -2.2215298939   -0.2789274636
Br       0.2111064625    3.4636112978    5.2184910022
H        1.5422190146    0.8375551136    4.4845506691
H       -1.1610464898    3.5688662933    2.5168601486
H       -1.4836494990    0.9792298198   -0.6689876173
H       -1.1790471151   -0.6897173247   -1.3812509852
H        1.2910793728   -0.1605606036   -1.5718466387
H        0.9736618965    1.5078611253   -0.8686439368
H        1.1543181747   -3.1701199850   -0.0469735393
20   
torsion grid (60,)
C        0.8263013908    1.0828501250    3.6698155938
C       -0.4428880565    2.7294590665    2.5000897881
C        0.2103408893    2.3354828555    3.6685822208
C        0.1140085365    0.7372934314    1.5252247783
C        0.3502553826   -1.5987296978    0.6056076755
C       -0.8735739967    0.1575878883   -0.8103093147
C        0.5787898747    0.4779699066   -0.9907914514
C        0.1020910488   -0.1419962376    0.3214736295
N        0.7844718830    0.2877086197    2.5985862037
N       -0.4945264511    1.9311127995    1.4312344077
O       -0.3468752976   -2.2849437615    1.3235417154
O        1.4122474952   -2.1045411716   -0.0775830452
Br       0.2687676339    3.4707102826    5.1996931154
H        1.3649047142    0.7182421473    4.5422893610
H       -0.9325309942    3.6984990557    2.4257760778
H       -1.5638560067    0.9738390451   -0.6299402399
H       -1.2817110287   -0.7014927804   -1.3335927835
H        1.1801100050   -0.1535067152   -1.6348718613
H        0.8760943682    1.5202679349   -0.9385967076
H        1.4513244404   -3.0525010361    0.1553771790
20   
torsion grid (75,)
C        0.7388133663    0.9943037647    3.7135480350
C       -0.2853503623    2.7637815053    2.4840645439
C        0.2573575937    2.3035291344    3.6854261402
C        0.1239766902    0.7281832998    1.5274009129
C        0.3637567903   -1.5996264449    0.6065466949
C       -0.9655935309    0.1446647627   -0.7509535483
C        0.4767798302    0.4592680339   -1.0153621522
C        0.0718265933   -0.1471640182    0.3238186359
N        0.6767027063    0.2086933547    2.6354835444
N       -0.3539240670    1.9785510112    1.4074650147
O       -0.4094412102   -2.3659292717    1.1419238198
O        1.5952313363   -1.9815599961    0.1782748301
Br       0.3430940636    3.4252260013    5.2250741453
H        1.1830423407    0.5736348046    4.6134496771
H       -0.6705804298    3.7772728533    2.3903914174
H       -1.6395014428    0.9687604076   -0.5450107258
H       -1.4084323285   -0.7185335848   -1.2376940289
H        1.0400092849   -0.1817142527   -1.6851665596
H        0.7807556931    1.5005935020   -0.9921187410
H        1.6854759712   -2.9229173582    0.4240169203
20   
torsion grid (90,)
C        0.6283402140    0.9400969941    3.7108868096
C       -0.1525936709    2.7941269906    2.4284098587
C        0.2722328690    2.2877790058    3.6587842452
C        0.1387304923    0.7306898595    1.4873363410
C        0.4167040881   -1.5829364608    0.5428045980
C       -1.0375493246    0.1316265515   -0.7335768398
C        0.3840302616    0.4645023962   -1.0781335415
C        0.0622761770   -0.1396616221    0.2825826799
N        0.5636441119    0.1619895951    2.6271193966
N       -0.2196181253    2.0186179206    1.3451025142
O       -0.3693356192   -2.4487213438    0.8659337963
O        1.7425133159   -1.8212815867    0.3717738635
Br       0.3637841504    3.3988140673    5.2057609911
H        0.9708964228    0.4805103463    4.6358140288
H       -0.4417778242    3.8373777419    2.3169921040
H       -1.7084298353    0.9506521040   -0.4987083967
H       -1.4960904857   -0.7422324897   -1.1848632999
H        0.9164682864   -0.1739143770   -1.7758930556
H        0.6773824345    1.5089873442   -1.0766155508
H        1.8826545815   -2.7581949459    0.6104153017
20   
torsion grid (105,)
C        0.7840097586    2.7244653411    2.4168092536
C       -0.4756684154    1.0716415641    3.5883125167
C        0.1707940399    2.3078274373    3.6002409315
C        0.1153834851    0.7901026130    1.3974905718
C       -0.5565530739   -1.4079114308    0.3576316338
C       -0.2170635737    0.6598949569   -1.1543787607
C        1.1478291434    0.0997047271   -0.8866271069
C        0.0569727361   -0.0446786464    0.1670863715
N        0.7583528355    1.9680472191    1.3181399717
N       -0.5052958071    0.3137672316    2.4890319005
O       -1.6668871326   -1.7405351684   -0.0026923608
O        0.2990583580   -2.2581493040    0.9803989491
Br       0.2143552032    3.3894862312    5.1699980666
H        1.3027137622    3.6792472774    2.3559199707
H       -0.9780075429    0.6872056083    4.4737378860
H       -0.3416073005    1.7360435590   -1.1019322899
H       -0.8752981931    0.1379134905   -1.8409042395
H        1.4466615243   -0.8092743815   -1.3994626258
H        1.9477197136    0.7919775089   -0.6468743842
H       -0.1931487458   -3.0910072995    1.1141889013
20   
torsion grid (120,)
C        0.9005445728    2.6581017746    2.4656050826
C       -0.5649575553    1.1282915098    3.5620422028
C        0.1884424527    2.3020179824    3.6120312278
C        0.1292901979    0.7807756748    1.4112747347
C       -0.4854688863   -1.4399602608    0.3471887716
C       -0.3029946273    0.6713670435   -1.1213798462
C        1.0864838513    0.1456737443   -0.9288644483
C        0.0528792921   -0.0460817189    0.1756022402
N        0.8739986712    1.8985200885    1.3683341985
N       -0.5989050713    0.3708171772    2.4633122195
O       -1.4723508311   -1.8924334500   -0.1977528437
O        0.3027334937   -2.1804724743    1.1672899067
Br       0.2377792964    3.3824246161    5.1825388782
H        1.5011857948    3.5650274803    2.4328153385
H       -1.1522112955    0.7965896615    4.4160630364
H       -0.4531108624    1.7429116682   -1.0439870392
H       -0.9809239657    0.1401856487   -1.7808081449
H        1.3807225100   -0.7463914369   -1.4731582715
H        1.8796929795    0.8525637210   -0.7119653445
H       -0.1341312530   -3.0492632024    1.2546941984
20   
torsion grid (135,)
C        1.0056819291    2.5830098598    2.5359075951
C       -0.6314774536    1.1683505155    3.5391516666
C        0.2061580663    2.2811594395    3.6382659624
C        0.1615697184    0.7655802418    1.4326276443
C       -0.3569333660   -1.4803709240    0.3343986906
C       -0.3469478761    0.6646395070   -1.0841871604
C        1.0691754317    0.2005640160   -0.9505638928
C        0.0859039910   -0.0543202693    0.1905459882
N        0.9867911001    1.8251484618    1.4361659853
N       -0.6599833707    0.4162931464    2.4375525754
O       -1.1645569736   -2.0439165089   -0.3791822160
O        0.3127647382   -2.1212134429    1.3250234396
Br       0.2472686650    3.3532688654    5.2147577942
H        1.6714437702    3.4438344173    2.5393207368
H       -1.2929302498    0.8848897094    4.3555575395
H       -0.5436465426    1.7268509365   -0.9836557156
H       -1.0219702179    0.1100651128   -1.7268834861
H        1.3782805020   -0.6704301577   -1.5196169420
H        1.8390568765    0.9356993314   -0.7457793391
H       -0.0432386742   -3.0298837913    1.3497850439
20   
torsion grid (150,)
C        1.1046296837    2.4893016004    2.5846373927
C       -0.7320418539    1.2419140720    3.4556679060
C        0.2083240533    2.2608673909    3.6273886768
C        0.1536630928    0.7795768270    1.3985845879
C       -0.2840558206   -1.4713941724    0.2494471684
C       -0.4425502808    0.7029002031   -1.1023603412
C        0.9968349978    0.3077970903   -1.0299294218
C        0.0709128957   -0.0214552043    0.1419315528
N        1.0808122292    1.7470499020    1.4729721139
N       -0.7660644796    0.5096542128    2.3420810074
O       -0.8775593658   -2.1087285652   -0.6012231613
O        0.2114059800   -2.0466141926    1.3732843603
Br       0.2540314991    3.3073207252    5.2209521878
H        1.8533670451    3.2767106254    2.6444675643
H       -1.4717043987    1.0213630236    4.2230065986
H       -0.6916267013    1.7505527969   -0.9685459802
H       -1.1092644070    0.1268959195   -1.7347432424
H        1.3223957903   -0.5356465952   -1.6295983073
H        1.7390399189    1.0720888071   -0.8315267689
H       -0.0561604929   -2.9847982971    1.3366825036
20   
torsion grid (165,)
C       -1.1022424699    2.4157223661    2.6328249813
C        0.8733933854    1.3485583308    3.4376395839
C       -0.1363781891    2.2878513023    3.6350951536
C       -0.0713333469    0.7594996260    1.4391006198
C       -1.2882015203   -0.7886249086   -0.2063134923
C        0.8209237527    0.4469935909   -0.9648506319
C        1.2479579347   -0.7714374973   -0.2134372967
C       -0.0439246882   -0.0625283418    0.1897733212
N       -1.0650855331    1.6614928631    1.5348252996
N        0.9043515950    0.5815544562    2.3416512351
O       -1.4860553892   -1.2693267656   -1.3080520227
O       -2.1649284542   -0.9384838005    0.8177089096
Br      -0.1913072617    3.3697612148    5.2044961475
H       -1.9086314110    3.1420052850    2.7157411966
H        1.6663684403    1.2072935664    4.1693158153
H        1.3492330757    1.3775811863   -0.7833849325
H        0.3981713082    0.3215095066   -1.9557766235
H        1.1290223541   -1.7329690761   -0.7006419023
H        2.0591910437   -0.6910039207    0.5005686516
H       -2.9157485029   -1.4464432919    0.4550959312
20   
torsion grid (180,)
C       -0.5947626829    2.7957586854    2.3995342028
C        0.3184041891    0.9906434247    3.6646539871
C       -0.1775742961    2.2959226910    3.6325316042
C       -0.0632151845    0.8009151781    1.4184259477
C       -1.1300201357   -1.0546493271    0.0345749283
C        0.5046277323    0.5258977866   -1.1093850548
C        1.3237786529   -0.4854820700   -0.3703776364
C       -0.0289113999   -0.0591404586    0.1913005558
N       -0.5382249250    2.0487873813    1.2915764732
N        0.3791007824    0.2454563869    2.5593648699
O       -1.2444202810   -1.8240024526   -0.9024264730
O       -2.0298485206   -1.0066520283    1.0504898964
Br      -0.2664798471    3.3583999016    5.2136886434
H       -0.9790575565    3.8089934514    2.3005629727
H        0.6735942994    0.5441890515    4.5914702333
H        0.7932577915    1.5704278750   -1.0633645564
H        0.0028002153    0.2100005109   -2.0173298775
H        1.3772976341   -1.4922003562   -0.7706504271
H        2.1917857655   -0.1514284721    0.1890044468
H       -2.7037691344   -1.6832484452    0.8465932120
