9    
torsion grid (-165,)
C        1.2619490396    0.0369397261    0.2728157243
C       -1.4708183632   -0.4187428022   -0.1077197025
O        2.4988112741   -0.4015921714    0.6134007103
S        1.0297192766    1.5480086667   -0.3060321760
S        0.0277447298   -1.2137403930    0.5434086995
H       -2.2762967055   -1.1451734593    0.0231061009
H       -1.3424353060   -0.1797597349   -1.1640360151
H       -1.6843086815    0.4905153315    0.4548713886
H        2.5129745887   -1.3729251379    0.7125644033
9    
torsion grid (-150,)
C        1.2523270423    0.0450285087    0.3211912030
C       -1.4708580399   -0.4199842377   -0.1088893820
O        2.4849646092   -0.4082195196    0.6735756768
S        1.0388351464    1.5416240885   -0.2989544416
S        0.0068791521   -1.1840807875    0.6232414712
H       -2.2796555997   -1.1425421829    0.0230719153
H       -1.3089775093   -0.2213106858   -1.1691335582
H       -1.7051028506    0.5098518895    0.4101017806
H        2.5389279022   -1.3768370476    0.5681744683
9    
torsion grid (-135,)
C        1.2420403428    0.0396528874    0.3564305467
C       -1.4758492608   -0.4187327054   -0.1085062684
O        2.4657348338   -0.4250585158    0.7462253284
S        1.0541069495    1.5188727386   -0.3104501591
S       -0.0146082216   -1.1693577415    0.6701771543
H       -2.2899623562   -1.1354202918    0.0232112806
H       -1.2935624794   -0.2438220905   -1.1698253879
H       -1.7184965124    0.5234925985    0.3837713540
H        2.5879365571   -1.3460968538    0.4513452847
9    
torsion grid (-120,)
C        1.2298116615    0.0189752045    0.3784061103
C       -1.4860011317   -0.4152915407   -0.1099905340
O        2.4390908072   -0.4546676033    0.8251085443
S        1.0719730813    1.4859180158   -0.3217138219
S       -0.0370995836   -1.1718823875    0.6868385481
H       -2.3109379134   -1.1178862846    0.0302418333
H       -1.2983222307   -0.2598500813   -1.1735705422
H       -1.7179138001    0.5386465911    0.3649572227
H        2.6667389622   -1.2804318883    0.3621017727
9    
torsion grid (-105,)
C        1.2189157278   -0.0178154386    0.3799503896
C       -1.5007546721   -0.4088063660   -0.1084589888
O        2.4050430033   -0.4962570070    0.8952761373
S        1.0933593666    1.4396413164   -0.3471417192
S       -0.0617380471   -1.1859088684    0.6866988528
H       -2.3372783621   -1.0967173673    0.0362666458
H       -1.3142306449   -0.2595138589   -1.1731995194
H       -1.7161330818    0.5510116940    0.3630713796
H        2.7701565631   -1.1821040787    0.3099159557
9    
torsion grid (-90,)
C        1.2094335392   -0.0676179805    0.3648815386
C       -1.5163443093   -0.4014725969   -0.1063245352
O        2.3653573912   -0.5484748252    0.9496675598
S        1.1142714087    1.3870736303   -0.3751943672
S       -0.0851968256   -1.2138086321    0.6674818234
H       -2.3686611720   -1.0654818071    0.0567765992
H       -1.3453743022   -0.2620343241   -1.1749769551
H       -1.6974845574    0.5664194161    0.3637040080
H        2.8813386800   -1.0510728548    0.2963634618
9    
torsion grid (-75,)
C        1.2040273670   -0.1244652979    0.3417802744
C       -1.5296124845   -0.3919988551   -0.1025489872
O        2.3269444536   -0.6101849272    0.9787149233
S        1.1367035451    1.3298643157   -0.4075320052
S       -0.1084463571   -1.2474540213    0.6423057648
H       -2.3953462466   -1.0366015164    0.0677505756
H       -1.3714884496   -0.2474163381   -1.1723372614
H       -1.6805950544    0.5758351576    0.3784430425
H        2.9751530793   -0.9040484915    0.3158028064
9    
torsion grid (-60,)
C        1.2004257380   -0.1792546512    0.3205492860
C       -1.5386642635   -0.3828175724   -0.0975567454
O        2.2980013863   -0.6747991334    0.9809235446
S        1.1606779034    1.2736939044   -0.4394245868
S       -0.1304340804   -1.2799987525    0.6221697912
H       -2.4160131517   -1.0110933813    0.0743718492
H       -1.3885470503   -0.2296680269   -1.1671262752
H       -1.6646970337    0.5820458080    0.3963604297
H        3.0365904046   -0.7545781692    0.3521118400
9    
torsion grid (-45,)
C        1.1977056450   -0.2273699225    0.3055334314
C       -1.5440628649   -0.3748173810   -0.0927633622
O        2.2823146246   -0.7397893880    0.9593176914
S        1.1837407335    1.2239449181   -0.4641749448
S       -0.1505938053   -1.3073922086    0.6107906768
H       -2.4317845398   -0.9880913356    0.0801313444
H       -1.3979111272   -0.2171720685   -1.1620921795
H       -1.6492995828    0.5880056874    0.4095925543
H        3.0672307696   -0.6137882758    0.3960439215
9    
torsion grid (-30,)
C        1.1953398046   -0.2653540304    0.2968887073
C       -1.5467146132   -0.3683144323   -0.0885874743
O        2.2793339229   -0.8033399551    0.9162218730
S        1.2031909479    1.1845316456   -0.4804286540
S       -0.1679726479   -1.3257958301    0.6110487338
H       -2.4429799532   -0.9687776058    0.0852104402
H       -1.4002601442   -0.2122813752   -1.1580350310
H       -1.6370119396    0.5948994754    0.4155260562
H        3.0744144754   -0.4920378666    0.4445344821
9    
torsion grid (-15,)
C        1.1938749938   -0.2913527069    0.2912110763
C       -1.5478623360   -0.3636558307   -0.0852969524
O        2.2858353220   -0.8638338643    0.8525702609
S        1.2164708860    1.1597440824   -0.4869896377
S       -0.1807985193   -1.3339066878    0.6202025467
H       -2.4503566721   -0.9536695402    0.0920259578
H       -1.3999501309   -0.2161180793   -1.1557257838
H       -1.6279646105    0.6031386112    0.4133192367
H        3.0680909197   -0.3968159588    0.5010624288
9    
torsion grid (0,)
C        1.1940873258   -0.3034032534    0.2842555553
C       -1.5484202431   -0.3610842653   -0.0824547324
O        2.2972784683   -0.9162219837    0.7720910692
S        1.2214555882    1.1507457160   -0.4894150063
S       -0.1868225305   -1.3315724535    0.6334647966
H       -2.4541613365   -0.9435637995    0.1030446584
H       -1.4011424216   -0.2278329833   -1.1548785827
H       -1.6220039546    0.6120937900    0.4043913837
H        3.0570689566   -0.3356307417    0.5718799916
9    
torsion grid (15,)
C        1.1896564303   -0.2829821625    0.3162215134
C       -1.5339198784   -0.3915307086   -0.1679881817
O        2.3355957342   -0.9641256702    0.5572668604
S        1.1267457528    1.3401819411    0.0457230261
S       -0.1238558184   -1.4484863801    0.2820604920
H       -2.3982171346   -1.0583149805   -0.2174312486
H       -1.3661282590    0.0773944331   -1.1383907608
H       -1.6944670963    0.3757655292    0.5902626856
H        3.0219301222   -0.3043719760    0.7746547469
9    
torsion grid (30,)
C        1.1953260384   -0.2654269153    0.2969866335
C       -1.5342665622   -0.3931877291   -0.1624220546
O        2.3542556002   -0.9541729762    0.4717913762
S        1.1185442280    1.3547721563    0.0221923610
S       -0.1135577624   -1.4352964337    0.2878965182
H       -2.3947309585   -1.0656096853   -0.2011908687
H       -1.3748985268    0.0685984101   -1.1378298986
H       -1.6950592727    0.3801693476    0.5896270294
H        3.0017270685   -0.3463161489    0.8753280369
9    
torsion grid (45,)
C        1.2039269081   -0.2399658609    0.2686867463
C       -1.5336282841   -0.3956423191   -0.1546551676
O        2.3761671165   -0.9286418299    0.4027039384
S        1.1087943794    1.3746843666   -0.0190925557
S       -0.0952794677   -1.4187027337    0.2823102043
H       -2.3875241382   -1.0769106604   -0.1826313706
H       -1.3890121383    0.0653803319   -1.1329235284
H       -1.6945111449    0.3789027306    0.5962599296
H        2.9684066219   -0.4155739996    0.9817209370
9    
torsion grid (60,)
C        1.2157591124   -0.2101462144    0.2297162382
C       -1.5307155459   -0.3986548010   -0.1447275876
O        2.4039524927   -0.8879529823    0.3526164451
S        1.0991728019    1.3974613619   -0.0739371208
S       -0.0700222729   -1.4015428883    0.2634921044
H       -2.3765407099   -1.0903027425   -0.1600245320
H       -1.4081475777    0.0669235091   -1.1240200560
H       -1.6883526720    0.3728363132    0.6102035154
H        2.9122342242   -0.5050915300    1.0890601265
9    
torsion grid (75,)
C        1.2309392535   -0.1785872732    0.1823878162
C       -1.5245153537   -0.4021281267   -0.1328677415
O        2.4372724487   -0.8321299765    0.3245120582
S        1.0914436330    1.4210428886   -0.1382384028
S       -0.0399289866   -1.3852626235    0.2356161674
H       -2.3614169452   -1.1046984300   -0.1338298024
H       -1.4291731149    0.0709829173   -1.1116051871
H       -1.6754698550    0.3634551496    0.6296601172
H        2.8281887729   -0.6091445000    1.1867441080
9    
torsion grid (90,)
C        1.2485740270   -0.1463235153    0.1329737877
C       -1.5139612371   -0.4061328597   -0.1205095742
O        2.4713766514   -0.7617488930    0.3210243544
S        1.0853776925    1.4453412682   -0.2029813359
S       -0.0070414983   -1.3709953413    0.2036548532
H       -2.3421829791   -1.1185984188   -0.1006165361
H       -1.4505039110    0.0705175144   -1.0999640625
H       -1.6528838251    0.3559450713    0.6480146423
H        2.7185849324   -0.7244748003    1.2607830044
9    
torsion grid (105,)
C        1.2670163345   -0.1145137506    0.0949554288
C       -1.5005119296   -0.4091696659   -0.1099611440
O        2.4982636142   -0.6838104589    0.3425357613
S        1.0790478236    1.4686251275   -0.2613394523
S        0.0237125888   -1.3577495460    0.1796402107
H       -2.3215413118   -1.1282621999   -0.0574682865
H       -1.4699530599    0.0567164526   -1.0958594989
H       -1.6225147125    0.3600180618    0.6543799159
H        2.6038205055   -0.8483239951    1.2954961984
9    
torsion grid (120,)
C        1.2805982166   -0.0831112429    0.0775185467
C       -1.4875944355   -0.4119691072   -0.1006146229
O        2.5140736581   -0.6055747147    0.3805036728
S        1.0708610435    1.4883903844   -0.3141395626
S        0.0485680511   -1.3441623287    0.1784939183
H       -2.3004095207   -1.1389734254   -0.0326321070
H       -1.4723251700    0.0455406872   -1.0904673143
H       -1.6075436425    0.3615589200    0.6595526788
H        2.5111116521   -0.9681691473    1.2841639236
9    
torsion grid (135,)
C        1.2878030016   -0.0523446176    0.0853265761
C       -1.4778605157   -0.4145807729   -0.0966777365
O        2.5190813103   -0.5324935265    0.4299060761
S        1.0605172659    1.5062423993   -0.3474441686
S        0.0652679199   -1.3300120062    0.1961646120
H       -2.2843087050   -1.1467314649   -0.0108457033
H       -1.4687996084    0.0222706021   -1.0957179830
H       -1.6003650231    0.3725864603    0.6486950174
H        2.4560042072   -1.0814070481    1.2329724431
9    
torsion grid (150,)
C        1.2877168825   -0.0261282262    0.1115726445
C       -1.4733523038   -0.4148565340   -0.0941734747
O        2.5176010601   -0.4740387266    0.4800361918
S        1.0516731917    1.5160778670   -0.3740624023
S        0.0703644242   -1.3118027423    0.2464021973
H       -2.2752632285   -1.1513149737   -0.0034818276
H       -1.4496646030   -0.0028944527   -1.1034026804
H       -1.6125579682    0.3886183169    0.6302880101
H        2.4408223977   -1.1801305028    1.1492004745
9    
torsion grid (165,)
C        1.2816008897   -0.0024620646    0.1564525367
C       -1.4725754345   -0.4148603759   -0.0968560813
O        2.5134576724   -0.4312404518    0.5265140666
S        1.0407193003    1.5259952434   -0.3707712625
S        0.0643309228   -1.2870321749    0.3262918364
H       -2.2728889986   -1.1515777666    0.0048994509
H       -1.4224416502   -0.0477083079   -1.1223000888
H       -1.6337874703    0.4184433408    0.5879751522
H        2.4589246212   -1.2660274169    1.0301735233
9    
torsion grid (180,)
C        1.2719074967    0.0190724223    0.2141045816
C       -1.4724416445   -0.4160267491   -0.1027676489
O        2.5079559313   -0.4076217815    0.5674179128
S        1.0308666149    1.5386092113   -0.3392534228
S        0.0481446483   -1.2521349705    0.4354373588
H       -2.2742916862   -1.1486935808    0.0148434582
H       -1.3840330971   -0.1131795145   -1.1465686460
H       -1.6605403671    0.4573527856    0.5224214896
H        2.4897719564   -1.3338477972    0.8767440498
