20   
torsion grid (-45,)
C        3.5235035137   -2.0186550370    0.6302283990
C        3.5379150994   -2.6662281081   -0.5668084788
C        1.5563062772   -1.3389746572   -0.4572217681
C       -0.5804943085    0.7869020969    0.6917592412
C        0.1994408688    0.8398985172   -0.6375100256
C        0.1846425603   -0.7392288871   -0.5555410153
C       -0.6847867070   -1.4383272500   -1.6008485413
N        2.2216439066   -1.4170295130    0.7144190591
N       -0.4015271738   -0.6133574780    0.8005035440
O       -1.1572815349    1.5746400133    1.3859543538
S        2.7390138299   -1.5576630929   -1.7034665066
H        4.0723061611   -2.2170949565    1.5438898007
H        4.4031554370   -3.2023353973   -0.9498251554
H       -0.3696497132    1.2457604514   -1.4752417261
H        1.1762827909    1.3234553608   -0.5770192124
H       -1.6665923802   -0.9596772603   -1.6316515975
H       -0.8197323833   -2.4968994176   -1.3603301222
H       -0.2354767679   -1.3664276036   -2.5951490145
H        1.7244565324   -1.1957989364    1.5815180311
H       -1.0985116748   -1.2484758660    1.1901038996
20   
torsion grid (-30,)
C        3.4798920194   -2.0394789540    0.6348246735
C        3.6482107752   -2.5879633648   -0.5999857150
C        1.5488086828   -1.3664962062   -0.4544098316
C       -0.5442519244    0.8016657177    0.7087585775
C        0.2282417724    0.8403098467   -0.6243463508
C        0.1852836003   -0.7361119963   -0.5474747777
C       -0.7044138421   -1.4161292502   -1.5871593354
N        2.1987693274   -1.4766035319    0.7119007842
N       -0.3889486315   -0.6036397947    0.8139151912
O       -1.1039538602    1.5962834300    1.4089800767
S        2.6527375817   -1.6907701854   -1.7325482764
H        4.0360311797   -2.2362314438    1.5435227581
H        4.5490813764   -3.0690443416   -0.9651229224
H       -0.3388053918    1.2609673851   -1.4562557262
H        1.2143710404    1.3058114972   -0.5712885513
H       -1.6776852628   -0.9199628440   -1.6112062538
H       -0.8560416290   -2.4729675052   -1.3490532447
H       -0.2635168152   -1.3485343018   -2.5860268937
H        1.7133673593   -1.2157829593    1.5748362745
H       -1.1011501841   -1.2242260028    1.1997982938
20   
torsion grid (-15,)
C        3.5237036326   -2.0885369306    0.5810257400
C        3.7538950103   -2.5051567623   -0.6918433380
C        1.5901228177   -1.3640170639   -0.4435090827
C       -0.4226135415    0.8200602298    0.8296048827
C        0.3224646112    0.8764012671   -0.5182216657
C        0.2386430203   -0.6995297428   -0.4864919567
C       -0.6921169544   -1.3224497388   -1.5251809521
N        2.2631682095   -1.5195014042    0.6976616573
N       -0.3006065655   -0.5907543402    0.8905867089
O       -0.9462490076    1.6076395518    1.5649718822
S        2.5758737716   -1.8057986845   -1.7706756055
H        4.1131813064   -2.2898965800    1.4666896138
H        4.6488916862   -2.9713771413   -1.0843764466
H       -0.2484844570    1.3373911579   -1.3256709675
H        1.3223462953    1.3125249303   -0.4725798984
H       -1.6530059617   -0.8025708542   -1.5087997212
H       -0.8642914011   -2.3828602311   -1.3191955477
H       -0.2763702386   -1.2295057203   -2.5332055040
H        1.8118272936   -1.2517187486    1.5768736650
H       -1.0107377811   -1.2088409692    1.2841615610
20   
torsion grid (0,)
C        3.5055755560   -2.1188476191    0.5945439264
C        3.8132437903   -2.4028634313   -0.6970926542
C        1.5876154015   -1.3715685232   -0.4421464196
C       -0.4084149496    0.8386575173    0.8094046328
C        0.3430166581    0.8754780592   -0.5355553785
C        0.2409006173   -0.6991101582   -0.4918692544
C       -0.6924729478   -1.3183696238   -1.5302332557
N        2.2499626028   -1.5443649066    0.7013562244
N       -0.3016875052   -0.5729055951    0.8820273045
O       -0.9265166667    1.6376766504    1.5363316156
S        2.5162698489   -1.9381171813   -1.7585959133
H        4.1023959022   -2.2967291257    1.4798887170
H        4.7161648897   -2.8570279151   -1.0839006475
H       -0.2182400003    1.3368867568   -1.3495095542
H        1.3477328364    1.3003045510   -0.4888655652
H       -1.6464881442   -0.7858240465   -1.5231237334
H       -0.8801743006   -2.3745785019   -1.3162833268
H       -0.2721173684   -1.2373390723   -2.5376243772
H        1.8017680687   -1.2608088595    1.5772509102
H       -1.0183749830   -1.1807144014    1.2797109266
20   
torsion grid (15,)
C        3.4865105182   -2.1769271253    0.5874775744
C        3.8478904193   -2.2874644234   -0.7178898531
C        1.5803276153   -1.3826592467   -0.4340119657
C       -0.3924387457    0.8410819850    0.8210215119
C        0.3574892103    0.8679430308   -0.5250486285
C        0.2381323855   -0.7059387562   -0.4780929089
C       -0.7020368363   -1.3163583165   -1.5157676357
N        2.2320446836   -1.5964225983    0.7101480540
N       -0.3009070535   -0.5714676830    0.8963452947
O       -0.9009101413    1.6470847756    1.5470047442
S        2.4581637569   -2.0459760436   -1.7437365802
H        4.0938888600   -2.3520536294    1.4665092385
H        4.7564975966   -2.7202007545   -1.1174095931
H       -0.1995577322    1.3332583263   -1.3396672497
H        1.3666121489    1.2825422099   -0.4806345682
H       -1.6501819440   -0.7734315999   -1.5085859601
H       -0.9018280574   -2.3700382196   -1.3000096458
H       -0.2821281576   -1.2395011158   -2.5237202936
H        1.7908926621   -1.3150573184    1.5901401324
H       -1.0251268873   -1.1696777650    1.2949580726
20   
torsion grid (30,)
C        3.4770408814   -2.2181596187    0.5951034784
C        3.8634383495   -2.1522201059   -0.7086118790
C        1.5717632208   -1.3909941053   -0.4265113497
C       -0.3780119355    0.8639368154    0.7964666416
C        0.3813103659    0.8646388801   -0.5450539719
C        0.2377780008   -0.7083801999   -0.4792413293
C       -0.7037288698   -1.3159245711   -1.5177862033
N        2.2078972321   -1.6383861554    0.7263440306
N       -0.3069997882   -0.5477998724    0.8896135731
O       -0.8788542574    1.6869946594    1.5085374663
S        2.4170477460   -2.1686329339   -1.7042498159
H        4.0863699292   -2.3860796182    1.4748895640
H        4.7822666905   -2.5564162325   -1.1192930883
H       -0.1619287822    1.3266065370   -1.3707617396
H        1.3959857122    1.2652406975   -0.4974894498
H       -1.6425391857   -0.7570237620   -1.5242438428
H       -0.9241039838   -2.3629869227   -1.2896587808
H       -0.2747474691   -1.2577950842   -2.5229854781
H        1.7730547069   -1.3481729267    1.6061874525
H       -1.0388711065   -1.1321111573    1.2947142118
20   
torsion grid (45,)
C        3.5157040343   -2.0411425284    0.8859740934
C        3.9969992750   -1.9127561465   -0.3810645895
C        1.7131043318   -1.2267188614   -0.3735970206
C       -0.1699463355    1.2621384067    0.3969126215
C        0.6985606024    1.0503965702   -0.8599856396
C        0.4362427440   -0.4926027470   -0.6182533833
C       -0.4534767228   -1.1685641963   -1.6609660094
N        2.2199077503   -1.4242702553    0.8626619322
N       -0.2068707020   -0.1268147045    0.6644335090
O       -0.6678812943    2.1981540054    0.9547937855
S        2.6090219084   -2.2532546407   -1.4397129799
H        4.0371339056   -2.1434045533    1.8307977251
H        4.9524126476   -2.3234415468   -0.7000549724
H        0.2640962113    1.4343723329   -1.7840629582
H        1.7312400921    1.3923763585   -0.7640722014
H       -1.3435500822   -0.5563871221   -1.8246700964
H       -0.7710291566   -2.1606196934   -1.3262697104
H        0.0652512385   -1.2684574176   -2.6190844935
H        1.7465926290   -1.0038442266    1.6664921593
H       -1.0043181048   -0.6128375879    1.0753438255
