15   
torsion grid (-165,)
C        0.0941802423    2.6715990465    2.0506708626
C        0.9392876714    1.9630953723    0.9757219545
C        0.6583909908    0.4857235074    0.8974376288
C        1.5510408781   -0.4875243227    1.1197890764
C        1.2627017528   -1.9627115110    1.0493464568
H        0.1114993390    3.7588987901    1.9183475730
H        0.4485224246    2.4302775873    3.0577492574
H       -0.9545351198    2.3583082339    1.9862551067
H        0.7151190970    2.4165888672    0.0000554771
H        2.0060009562    2.1331017184    1.1602033579
H       -0.3698792372    0.2094739588    0.6509400032
H        2.5758854573   -0.2067807989    1.3718406137
H        1.8918167663   -2.4538189616    0.2961622532
H        0.2157743367   -2.1545506106    0.7943937558
H        1.4752976791   -2.4536205064    2.0075349109
15   
torsion grid (-150,)
C        0.1246080372    2.6036522445    2.0281152122
C        1.0141550287    1.8889088646    0.9870335200
C        0.7118095441    0.4181207037    0.8705666777
C        1.5749510060   -0.5756378870    1.1175367239
C        1.2643442454   -2.0436574914    1.0044540818
H       -0.0456925029    3.6521096177    1.7619416074
H        0.5565656269    2.5523127835    3.0319964337
H       -0.8641262191    2.1326047581    2.0757374694
H        0.8453298025    2.3527035920    0.0054469843
H        2.0738228992    2.0392223848    1.2201649156
H       -0.3080719694    0.1662508403    0.5695798033
H        2.5909184186   -0.3187584171    1.4247869776
H        1.9206111311   -2.5323593571    0.2731890184
H        0.2278758356   -2.2112061384    0.6953405584
H        1.4211509873   -2.5561869581    1.9620715089
15   
torsion grid (-135,)
C        0.1138115115    2.6144810351    2.0330564147
C        1.0287315569    1.8942602035    1.0091543833
C        0.7159465221    0.4275875941    0.8684546024
C        1.5651435619   -0.5763321643    1.1224518121
C        1.2446285311   -2.0401480894    0.9849450422
H       -0.2527601375    3.5722676856    1.6504030115
H        0.6283449977    2.7900017499    2.9823010078
H       -0.7714501539    2.0088386218    2.2558486567
H        0.9034666904    2.3676775349    0.0263202612
H        2.0824996565    2.0243449282    1.2769684438
H       -0.2987888798    0.1877750000    0.5413971567
H        2.5759550862   -0.3318396230    1.4556582070
H        1.9133123125   -2.5261315343    0.2631808651
H        0.2141872218   -2.1949230129    0.6500798744
H        1.3748521842   -2.5651989653    1.9397647524
15   
torsion grid (-120,)
C        0.1040556329    2.6153544087    2.0341617925
C        1.0451346133    1.8945183214    1.0295826181
C        0.7216029035    0.4328835973    0.8616670049
C        1.5561352306   -0.5805917202    1.1258494946
C        1.2269524007   -2.0402545021    0.9663601304
H       -0.4446533924    3.4376173242    1.5644413872
H        0.6637468229    3.0304609475    2.8778388561
H       -0.6358251055    1.9240320086    2.4497365087
H        0.9745414739    2.3866522775    0.0511361422
H        2.0887376724    1.9961794240    1.3450955741
H       -0.2865103375    0.2040069368    0.5071551282
H        2.5605065201   -0.3479661156    1.4859864595
H        1.9085110241   -2.5247158831    0.2557001319
H        0.2035217245   -2.1831087379    0.6057303249
H        1.3303286335   -2.5757635717    1.9186629027
15   
torsion grid (-105,)
C        0.0656268669    2.6110799500    2.0345201783
C        1.0316502936    1.9008391502    1.0494084624
C        0.7088237525    0.4419312386    0.8568468580
C        1.5349113616   -0.5745999447    1.1352340226
C        1.2076538503   -2.0326407568    0.9579873898
H       -0.6510938609    3.2533311195    1.5127327860
H        0.6182234493    3.2568740143    2.7250055043
H       -0.4925339882    1.8904919693    2.6393858999
H        1.0057907170    2.4142058739    0.0798874911
H        2.0622922685    1.9836859537    1.4110764714
H       -0.2898257156    0.2158232520    0.4744509896
H        2.5301744118   -0.3461722695    1.5224434035
H        1.9061383565   -2.5134286463    0.2614074803
H        0.1933846234   -2.1715216407    0.5709491542
H        1.2865096124   -2.5746075252    1.9089932989
15   
torsion grid (-90,)
C       -0.0017015676    2.6034599625    2.0294122635
C        0.9879475337    1.9097036308    1.0646817700
C        0.6742658717    0.4518551238    0.8521133444
C        1.4955118279   -0.5640338118    1.1468327273
C        1.1771682862   -2.0220014157    0.9535581814
H       -0.8579105753    3.0282911889    1.4947439902
H        0.4857928611    3.4405010495    2.5419365904
H       -0.3672788384    1.9125980854    2.7946375695
H        0.9875160487    2.4394656355    0.1032513346
H        2.0063754084    1.9907265253    1.4613272536
H       -0.3138325642    0.2240308153    0.4439109311
H        2.4805016234   -0.3353974504    1.5594634040
H        1.8941616703   -2.4966538651    0.2717353679
H        0.1731250428   -2.1618673296    0.5410838312
H        1.2344953620   -2.5691133041    1.9031823597
15   
torsion grid (-75,)
C       -0.0497873874    2.5890121183    2.0030326132
C        0.9626703687    1.9057629085    1.0634372294
C        0.6559668995    0.4482249326    0.8393210882
C        1.4658639978   -0.5687411536    1.1604265554
C        1.1530367167   -2.0261126124    0.9543163751
H       -1.0028997113    2.7750345759    1.4953700977
H        0.3275701552    3.5637039796    2.3330034727
H       -0.2396144697    1.9798214166    2.8920740838
H        0.9755274441    2.4383051362    0.1029905629
H        1.9714657707    1.9951102480    1.4831546700
H       -0.3172933763    0.2229859988    0.3955783901
H        2.4357890308   -0.3413793192    1.6079950317
H        1.8923179536   -2.5005721135    0.2965774625
H        0.1634225514   -2.1643111946    0.5078176435
H        1.1775663925   -2.5744385998    1.9046193067
15   
torsion grid (-60,)
C        0.0254660611    2.6445607713    2.0444575761
C        1.0284116210    1.9604763100    1.0991257037
C        0.6949507443    0.5127137302    0.8526194683
C        1.4791405081   -0.5264543551    1.1664891894
C        1.1376926380   -1.9733080530    0.9335186523
H       -0.9893580945    2.6148504024    1.6315353614
H        0.2888251403    3.6960961987    2.2039268400
H        0.0049174904    2.1450109191    3.0186395929
H        1.0385341885    2.5009405499    0.1424642877
H        2.0404771991    2.0377935390    1.5130437811
H       -0.2785593156    0.3163629401    0.3960982712
H        2.4488431239   -0.3270639547    1.6276290986
H        1.8753634406   -2.4537648638    0.2783545308
H        0.1514130488   -2.0829506739    0.4719342427
H        1.1373477805   -2.5364228148    1.8754541824
15   
torsion grid (-45,)
C        0.0294977900    2.6479110706    2.0495577070
C        1.0509815833    1.9616113998    1.1235510479
C        0.7085317266    0.5207374883    0.8513994753
C        1.4687139905   -0.5328078188    1.1764550409
C        1.1174239873   -1.9717808731    0.9114700038
H       -0.9967672006    2.4086694765    1.7487738444
H        0.1481820163    3.7364767999    2.0460616248
H        0.1464997812    2.2944494643    3.0798506712
H        1.0791282836    2.5035290300    0.1677759520
H        2.0566959755    2.0343586128    1.5524376975
H       -0.2519079120    0.3442803780    0.3606815019
H        2.4247788188   -0.3521721629    1.6724059482
H        1.8716877086   -2.4532008053    0.2762146684
H        0.1468385019   -2.0621564716    0.4138184262
H        1.0763709532   -2.5473614063    1.8449343812
15   
torsion grid (-30,)
C       -0.0369905837    2.7223291517    2.0689619452
C        0.9896476142    2.0364688931    1.1406870008
C        0.6527598948    0.5953273061    0.8625849758
C        1.4170292384   -0.4574791492    1.1805091150
C        1.0716533062   -1.8959113261    0.9049112321
H       -1.0343447971    2.2866961124    1.9448555176
H       -0.0966575136    3.8008151798    1.8930063421
H        0.2315914821    2.5657338694    3.1195283542
H        1.0127387314    2.5739410393    0.1825201144
H        1.9975817639    2.1148189040    1.5620132014
H       -0.3070065440    0.4191665798    0.3706968208
H        2.3720804596   -0.2764124110    1.6781738526
H        1.8268566044   -2.3690638102    0.2645602891
H        0.1006333862   -1.9866840209    0.4081497386
H        1.0347185065   -2.4789610236    1.8338865051
15   
torsion grid (-15,)
C       -0.0491984201    2.7354291470    2.0746152461
C        0.9979476475    2.0412441912    1.1660882467
C        0.6555665515    0.6060712005    0.8635132135
C        1.4060297526   -0.4563874196    1.1821984119
C        1.0557436076   -1.8887450001    0.8820728859
H       -0.9777363651    2.1573558491    2.1233303236
H       -0.2867560573    3.7484042163    1.7363924639
H        0.3162534414    2.8059087833    3.1045824044
H        1.0608869868    2.5859605285    0.2145376632
H        1.9946188321    2.0984538442    1.6157449894
H       -0.2954608999    0.4431075072    0.3506090316
H        2.3524041872   -0.2886272133    1.7006191501
H        1.8195977789   -2.3594206105    0.2502099416
H        0.0938096317   -1.9661799504    0.3657581704
H        0.9968983841   -2.4831453258    1.8026982430
15   
torsion grid (0,)
C       -0.0535136347    2.7378103556    2.0810710493
C        1.0125785424    2.0388531496    1.1926605968
C        0.6623615592    0.6114342662    0.8624361305
C        1.3983242684   -0.4606911795    1.1822617700
C        1.0412036328   -1.8864008097    0.8594201091
H       -0.8819767926    2.0613868056    2.3134662812
H       -0.4751785678    3.6240580967    1.5968965502
H        0.3735768151    3.0571209341    3.0367499486
H        1.1269374004    2.5998800955    0.2563138895
H        1.9917964105    2.0634531409    1.6820259805
H       -0.2802440271    0.4613567488    0.3301636712
H        2.3364213487   -0.3070172956    1.7197889915
H        1.8122715765   -2.3564935147    0.2359376947
H        0.0881285878   -1.9495620451    0.3250691682
H        0.9607358203   -2.4907385235    1.7719098368
15   
torsion grid (15,)
C       -0.1832930717    2.5411076677    2.0093094405
C        0.4512408343    1.7726828196    0.8197232990
C        0.4543845098    0.2793081651    1.0181450478
C        1.5481412021   -0.4926112889    1.0500101164
C        1.5531365611   -1.9821842135    1.2633644459
H       -0.2769940953    1.8985663777    2.8902744006
H       -1.1919956511    2.8928980258    1.7678087649
H        0.4110784478    3.4163801438    2.2878315192
H       -0.0880631568    2.0198210284   -0.1034531835
H        1.4838964924    2.1049967977    0.6672381890
H       -0.5224361431   -0.1897259571    1.1614439218
H        2.5232443375   -0.0207414151    0.9116374197
H        2.0073661417   -2.5027695791    0.4107697242
H        0.5389575681   -2.3712913730    1.3970397894
H        2.1415084335   -2.2533360617    2.1491690899
15   
torsion grid (30,)
C       -0.1658201095    2.5376542817    2.0066658180
C        0.4859167487    1.7843136073    0.8239126781
C        0.4628123376    0.2887072519    1.0013543936
C        1.5450755079   -0.4980183629    1.0560454239
C        1.5247049016   -1.9897047022    1.2529868103
H       -0.0499013563    1.9781026070    2.9401882645
H       -1.2442293675    2.6577027308    1.8501465398
H        0.2611633511    3.5369850061    2.1342029778
H       -0.0236111981    2.0612700050   -0.1080765015
H        1.5283469613    2.1039523927    0.7113773493
H       -0.5231570056   -0.1700855156    1.1123890955
H        2.5299843044   -0.0381950368    0.9501961268
H        1.9963602739   -2.5070867792    0.4079411706
H        0.5022826836   -2.3669038199    1.3538194064
H        2.0842970926   -2.2778187433    2.1520006456
15   
torsion grid (45,)
C       -0.1275695897    2.5404896749    1.9918425828
C        0.5412268848    1.7969866047    0.8194260670
C        0.4879482331    0.3001642100    0.9775125868
C        1.5545344409   -0.5050131623    1.0629567651
C        1.5028153650   -1.9984982558    1.2391753156
H        0.1772310447    2.1094790554    2.9510476228
H       -1.2192319073    2.4536431657    1.9379445706
H        0.1216338885    3.6066309676    1.9848364105
H        0.0527961112    2.0927449152   -0.1188103241
H        1.5893898290    2.1074923529    0.7361932245
H       -0.5093306903   -0.1424556550    1.0441510176
H        2.5499344911   -0.0600062178    1.0007356846
H        1.9965629479   -2.5128758808    0.4049735133
H        0.4713500608   -2.3596658962    1.2977402519
H        2.0243800460   -2.3073554332    2.1539988109
15   
torsion grid (60,)
C       -0.0398999155    2.5604160168    1.9821131508
C        0.6382383837    1.8196615012    0.8163507113
C        0.5399151705    0.3227428623    0.9479943602
C        1.5793610561   -0.5147656645    1.0551935789
C        1.4788741314   -2.0089261221    1.2022365535
H        0.4221302403    2.2887561613    2.9370154137
H       -1.1041868646    2.3058650583    2.0445315990
H        0.0372717513    3.6462860039    1.8587942822
H        0.1673699681    2.1349169060   -0.1251115322
H        1.6923412588    2.1136203140    0.7527699759
H       -0.4716653831   -0.0904589407    0.9735034371
H        2.5886477024   -0.0980494770    1.0348712728
H        1.9911731000   -2.5232384560    0.3792844438
H        0.4361437308   -2.3412122003    1.2134173557
H        1.9542802274   -2.3478952919    2.1314551880
15   
torsion grid (75,)
C       -0.0852898176    2.6603080970    1.9973908683
C        0.5909277885    1.9142799756    0.8318555243
C        0.4942552422    0.4174481768    0.9661163371
C        1.5325933860   -0.4217911747    1.0711692697
C        1.4302090336   -1.9161363975    1.2152484281
H        0.5274767358    2.6081829155    2.9033664222
H       -1.0705022076    2.2384504728    2.2236249114
H       -0.2230566445    3.7204637373    1.7560602508
H        0.1042402055    2.2152899913   -0.1064155536
H        1.6406361323    2.2174927157    0.7497473535
H       -0.5181236919    0.0066210079    0.9927030122
H        2.5423835619   -0.0063674391    1.0505651994
H        1.9410160915   -2.4295985862    0.3908299250
H        0.3870023092   -2.2469790832    1.2266816446
H        1.9058751707   -2.2576351510    2.1434007859
15   
torsion grid (90,)
C       -0.1082096709    2.6614449847    2.0384973628
C        0.5985952150    1.9220884805    0.8805725395
C        0.4789709953    0.4241278297    0.9818447246
C        1.5019882434   -0.4325381501    1.0963892354
C        1.3744403655   -1.9281418819    1.2026109227
H        0.5730920576    2.8184940004    2.8808816365
H       -0.9823053775    2.1086211723    2.3970421504
H       -0.4494449286    3.6531900574    1.7208717995
H        0.1428865776    2.2382048083   -0.0678710832
H        1.6528011816    2.2143758467    0.8287974925
H       -0.5395327644    0.0282304144    0.9707526572
H        2.5176366792   -0.0315967293    1.1138818901
H        1.8998843899   -2.4301077430    0.3802997867
H        0.3266758303   -2.2435813987    1.1783717568
H        1.8198563935   -2.2980251514    2.1348759695
15   
torsion grid (105,)
C       -0.0035956404    2.4735256458    1.9882319262
C        0.7888725335    1.7449445811    0.8719116354
C        0.6232362576    0.2482822311    0.9117672876
C        1.6118020834   -0.6391840515    1.0809835776
C        1.4395744936   -2.1334419948    1.1254496147
H        0.6612738638    2.8220334372    2.7846374000
H       -0.7583205770    1.8218012103    2.4389018312
H       -0.5203291902    3.3577917876    1.6002546674
H        0.4380624439    2.1027292115   -0.1051137681
H        1.8519793918    2.0012111336    0.9266106290
H       -0.4000520972   -0.1193279743    0.8025005215
H        2.6318169455   -0.2666103539    1.1963090060
H        2.0184888689   -2.6228512723    0.3319770823
H        0.3900097768   -2.4194885725    1.0050856996
H        1.7975886737   -2.5450015102    2.0776970815
15   
torsion grid (120,)
C        0.0154617376    2.4528110528    1.9744821618
C        0.8410549580    1.7249927426    0.8775761136
C        0.6528060903    0.2304474318    0.8908690001
C        1.6245295011   -0.6710340599    1.0817840561
C        1.4319814445   -2.1632877352    1.1045477329
H        0.6646027604    3.0069527918    2.6593545799
H       -0.5572801265    1.7420092528    2.5782212186
H       -0.6943631543    3.1673927229    1.5461462996
H        0.5505156808    2.1093563800   -0.1084983095
H        1.9063753237    1.9521078107    0.9894069685
H       -0.3705808332   -0.1239556128    0.7444406493
H        2.6448487786   -0.3127702179    1.2340110587
H        2.0294872115   -2.6517650111    0.3243950183
H        0.3832434973   -2.4343987732    0.9479645784
H        1.7544656528   -2.5895110567    2.0630241633
15   
torsion grid (135,)
C        0.0244223163    2.4493659005    1.9663678226
C        0.8744675952    1.7269583531    0.8878279971
C        0.6647297576    0.2352107385    0.8744728606
C        1.6195525618   -0.6800805577    1.0836791480
C        1.4080345042   -2.1699236471    1.0860060283
H        0.6194380943    3.1880909241    2.5124463034
H       -0.3437141131    1.7366409651    2.7116519707
H       -0.8451177413    2.9571615901    1.5380770817
H        0.6383412590    2.1405348126   -0.1009090584
H        1.9384242524    1.9270061410    1.0549570209
H       -0.3579038548   -0.1060192532    0.6943960756
H        2.6394618027   -0.3362666185    1.2686983459
H        2.0213099081   -2.6581295769    0.3180195313
H        0.3609058460   -2.4263155878    0.8972933485
H        1.6981792309   -2.6095515584    2.0487621766
15   
torsion grid (150,)
C        0.0361428061    2.4433730935    1.9660587420
C        0.9028413143    1.7320328054    0.9013812187
C        0.6757393242    0.2433870908    0.8616590816
C        1.6132171511   -0.6850982086    1.0901477181
C        1.3851309636   -2.1723392260    1.0697215509
H        0.5384126315    3.3364226893    2.3522779547
H       -0.1287139997    1.7845853384    2.8255393797
H       -0.9449886171    2.7317643673    1.5757835193
H        0.7013493175    2.1697186109   -0.0850832134
H        1.9631526788    1.9157540335    1.1088896179
H       -0.3444425060   -0.0844913012    0.6458405079
H        2.6308280353   -0.3552418640    1.3101261027
H        2.0153996123   -2.6591753270    0.3147273749
H        0.3412427892   -2.4146875198    0.8475525666
H        1.6419240964   -2.6255582831    2.0356405543
15   
torsion grid (165,)
C        0.1403695495    2.4425884143    1.9449789981
C        1.0160690980    1.7272362651    0.8979600684
C        0.7484564804    0.2465549196    0.8315044131
C        1.6489810280   -0.7120647514    1.0831451396
C        1.3784452986   -2.1915119119    1.0351307112
H        0.5268842030    3.4440677106    2.1631911671
H        0.1400071154    1.8844415800    2.8875537210
H       -0.8987275490    2.5344054543    1.6111761306
H        0.8456633766    2.1832060550   -0.0866994465
H        2.0742962462    1.8862314115    1.1358463140
H       -0.2721646014   -0.0479595630    0.5737017008
H        2.6668892851   -0.4152919374    1.3449581978
H        2.0223439268   -2.6880289899    0.2981592567
H        0.3370362007   -2.4001031328    0.7710234423
H        1.5851763140   -2.6633063643    2.0041551583
15   
torsion grid (180,)
C        0.1902188103    2.5043457498    1.9706632364
C        1.0592208471    1.7898138386    0.9209208117
C        0.7690111857    0.3143982036    0.8384225038
C        1.6494988000   -0.6628242544    1.0896357639
C        1.3536256750   -2.1366273956    1.0217215032
H        0.4202215317    3.5747888509    2.0108943332
H        0.3587786683    2.0817622881    2.9667773943
H       -0.8759162305    2.3980425593    1.7399980397
H        0.8819208630    2.2522910998   -0.0599595987
H        2.1199192870    1.9421858651    1.1516863477
H       -0.2542543617    0.0419084377    0.5675701799
H        2.6695884752   -0.3870167349    1.3654511236
H        1.9982713550   -2.6365345463    0.2877162710
H        0.3122100064   -2.3237603053    0.7419650594
H        1.5392113268   -2.6224368425    1.9880980987
