26   
torsion grid (-165,)
C        2.3614680836   -1.1197012903    0.2089183321
C       -1.1150012177   -0.9968529542    0.2247181877
C        0.1882729277    0.6329123382   -1.2988803817
C        0.7891976253   -1.8543226684   -1.2953742493
C       -2.0686634317    0.1932849503    0.3054780650
C       -0.0797708451    1.9240588478   -0.4940746957
C        0.2192905123   -0.6654986051   -0.4806154226
N        2.2079658876   -1.8351806883   -0.9054614252
N        3.4593464496   -0.9908868886    0.9406566152
O       -0.3811273288    1.2311440000    2.0836782900
O       -2.1289680486    2.7783308500    1.0268195506
O        1.2797535307   -0.4821641126    0.5726900506
S       -1.1975621814    1.6532305339    0.9353653881
H       -0.8906243598   -1.3794254977    1.2225962058
H       -1.6135333106   -1.7984539589   -0.3296833980
H       -0.5845314438    0.5021255555   -2.0632135521
H        1.1359076863    0.7453789053   -1.8363984309
H        0.3322204111   -2.8073566116   -1.0135662915
H        0.6790657775   -1.7008200702   -2.3703039883
H       -2.4389564921    0.4853601578   -0.6822278124
H       -2.9621804382    0.0527244179    0.9181949476
H        0.8358276469    2.3285955635   -0.0586122394
H       -0.5462857324    2.6852419797   -1.1210496391
H        2.9034023177   -2.4770205846   -1.2691841367
H        3.4295981071   -0.3935765402    1.7617702939
H        4.3092553010   -1.5056617162    0.7434803021
26   
torsion grid (-150,)
C        2.3662713881   -1.1400813440    0.2234640642
C       -1.1132728720   -0.9833670053    0.2626202885
C        0.2156773009    0.6367448671   -1.2889785288
C        0.7779371682   -1.8544221537   -1.2726208251
C       -2.0434561176    0.2207152796    0.2769135131
C       -0.1274256978    1.9573874234   -0.5485013339
C        0.2259751688   -0.6586095645   -0.4526747812
N        2.1983884256   -1.8543165617   -0.8895013558
N        3.4697171217   -1.0228702376    0.9488610474
O       -0.2948698982    1.2274855175    2.0373402208
O       -2.0915384767    2.7840375764    1.0871256068
O        1.2942208652   -0.4900788574    0.5929106368
S       -1.1609991159    1.6648487678    0.9331603226
H       -0.8901582500   -1.3269862163    1.2747649771
H       -1.6073106893   -1.8041422646   -0.2666759714
H       -0.5065485773    0.4729725003   -2.0950174623
H        1.1908551671    0.7471788645   -1.7744340761
H        0.3100064302   -2.8017403215   -0.9897874436
H        0.6652477275   -1.6992379521   -2.3469639871
H       -2.2698341385    0.5204942860   -0.7528958252
H       -3.0441048388    0.1718158445    0.7125254144
H        0.7679327343    2.4623132312   -0.1805863747
H       -0.6845050207    2.6380471355   -1.1934651909
H        2.8836031417   -2.5051952441   -1.2564935093
H        3.4516582297   -0.4224636997    1.7680440126
H        4.3130243975   -1.5465059841    0.7469383958
26   
torsion grid (-135,)
C        2.3579624962   -1.1616773729    0.2457967078
C       -1.1237272758   -0.9815988496    0.3147025023
C        0.2242222058    0.6472024089   -1.2566818117
C        0.7547000972   -1.8482480051   -1.2452174997
C       -2.0379849333    0.2301721579    0.2816166020
C       -0.1956147535    1.9867531179   -0.5751568314
C        0.2177616188   -0.6528098987   -0.4115512560
N        2.1771973814   -1.8662859099   -0.8710901376
N        3.4670198155   -1.0586179521    0.9648492532
O       -0.2375177091    1.2300953772    2.0102224129
O       -2.0847107783    2.7796149990    1.1539490149
O        1.2941930516   -0.5052271319    0.6268758602
S       -1.1507243731    1.6720025081    0.9475083752
H       -0.8973131069   -1.2997130579    1.3343041551
H       -1.6127932933   -1.8155485789   -0.1977768763
H       -0.4425547856    0.4563039209   -2.1033153737
H        1.2246573193    0.7647348265   -1.6850200082
H        0.2788047554   -2.7928480065   -0.9669032598
H        0.6379919578   -1.6847567372   -2.3177487854
H       -2.1296540793    0.5222911072   -0.7726087347
H       -3.1043584113    0.2638579493    0.5181491420
H        0.6697437864    2.5785404067   -0.2702219403
H       -0.8301306520    2.5857602625   -1.2290710065
H        2.8536985544   -2.5209326304   -1.2474063936
H        3.4601590277   -0.4607926507    1.7860759906
H        4.3049861745   -1.5869428278    0.7533613689
26   
torsion grid (-120,)
C        2.3652310416   -1.2192378726    0.2577571340
C       -1.1163905301   -1.0120586497    0.3742609211
C        0.2446172670    0.6393487841   -1.2125010392
C        0.7407242043   -1.8626534841   -1.2277259544
C       -2.0224369236    0.2031267627    0.3111129609
C       -0.2490213973    1.9874692640   -0.5806310532
C        0.2242962800   -0.6738317015   -0.3681534752
N        2.1662584311   -1.9043726565   -0.8678104296
N        3.4816858614   -1.1379329745    0.9681090483
O       -0.1639599760    1.2001801480    1.9907596984
O       -2.0607700604    2.7431732950    1.2389840250
O        1.3121265498   -0.5577587177    0.6589900747
S       -1.1260625666    1.6479448315    0.9758602667
H       -0.8786758083   -1.3123224883    1.3965394538
H       -1.5998615305   -1.8569398043   -0.1247230839
H       -0.3649242454    0.4306989724   -2.0970531753
H        1.2665597034    0.7695376918   -1.5812775042
H        0.2564462404   -2.8060638898   -0.9602342828
H        0.6167622095   -1.6819844995   -2.2964569699
H       -1.9898459734    0.4791873427   -0.7527805757
H       -3.1112834518    0.3039045831    0.3397669068
H        0.5816507195    2.6519194791   -0.3348492471
H       -0.9502033002    2.5075317202   -1.2334804550
H        2.8313459397   -2.5607969255   -1.2609848004
H        3.4895324058   -0.5495209578    1.7960926696
H        4.3128728623   -1.6699995194    0.7401108509
26   
torsion grid (-105,)
C        2.6254084840   -2.0137685141    0.0146410740
C       -0.8174963397   -1.4785126975    0.2411769537
C        0.6502358908    0.0234549596   -1.4409035016
C        0.9016049828   -2.5175799488   -1.4104918196
C       -1.6264264488   -0.1970435425    0.1312349323
C        0.2179387715    1.4336380202   -0.8849369272
C        0.5277330545   -1.2705338402   -0.5559986690
N        2.3256390345   -2.6957125711   -1.0899004798
N        3.7657767267   -2.0300803910    0.6908638310
O        0.3944865186    0.6805205121    1.6852888302
O       -1.4100560315    2.3643669216    1.0184327744
O        1.6550237832   -1.2450578152    0.4324334565
S       -0.5870028390    1.1916338990    0.7211429171
H       -0.5719357350   -1.7472865232    1.2700882624
H       -1.3747276106   -2.3075903715   -0.2041209332
H        0.0597247763   -0.1779080501   -2.3397208317
H        1.6900803658    0.0741533909   -1.7769087786
H        0.3350128263   -3.4046152171   -1.1137340552
H        0.7655905378   -2.3426679836   -2.4785245645
H       -1.4767112565    0.0119051114   -0.9399463641
H       -2.6850859412    0.0229403454   -0.0432038585
H        1.0761217636    2.0886402207   -0.7219175479
H       -0.5022912408    1.9282879262   -1.5364469868
H        2.9117884800   -3.4188089723   -1.4915477980
H        3.8575649006   -1.4281968190    1.5039148970
H        4.5345810212   -2.6433943760    0.4486732278
26   
torsion grid (-15,)
C        2.0551592738   -1.5301106294    0.4027463504
C       -1.2701204893   -0.7026145285    0.7755318302
C        0.4481583701    1.1860111795   -0.2456955397
C        0.3992883890   -1.2671164878   -1.1893632684
C       -1.9405130152    0.7139077417    0.9793764799
C       -0.6620540478    2.2184702404   -0.7411733382
C        0.0935817300   -0.3537321897    0.0291961408
N        1.7275569446   -1.8160790102   -0.8479203569
N        3.1295373456   -1.9393401521    1.0691300362
O       -3.3534413254    1.9316686172   -0.9978935389
O       -1.8223421982    0.0343047594   -1.6874623621
O        1.1911353189   -0.7482174965    1.0047791980
S       -2.1146840952    1.1778673856   -0.8027151185
H       -1.0295765427   -1.1448509241    1.7457432889
H       -1.8484372971   -1.4160469420    0.1911971451
H        1.2634570845    1.1756638388   -0.9728293990
H        0.8763704795    1.5699632192    0.6827081624
H       -0.3272381547   -2.0730064949   -1.2944368118
H        0.4444110811   -0.7078528960   -2.1207298760
H       -2.8381126715    0.8255956404    1.5787007869
H       -0.9626748799    0.9657590675    1.3689898321
H       -0.8486363125    3.0188477397   -0.0267746682
H       -0.4416853634    2.6170390648   -1.7327814953
H        2.2487445269   -2.4487512025   -1.4441946505
H        3.2687835340   -1.6235478676    2.0226919712
H        3.8091586004   -2.5715341005    0.6636417329
26   
torsion grid (0,)
C        1.8905355297   -1.4548934495    0.6560182737
C       -1.1410037687   -0.7544970784    0.3118567777
C        0.3373831698    1.1468907329   -1.0180283772
C        0.7480747192   -1.3674975788   -1.3415149037
C       -1.7051325893    0.5367483609    0.9809349862
C       -0.6111884495    2.3292861345   -0.6032240149
C        0.1937604636   -0.2887195890   -0.3840064761
N        1.6070971504   -2.1534539672   -0.4389976194
N        2.7392469642   -1.7876801014    1.6207172511
O       -3.2984734025    2.3965818861   -0.1969795756
O       -2.2952679722    0.5927185191   -1.6932115127
O        1.2259797173   -0.3275694673    0.7436979051
S       -2.1998501666    1.4866794576   -0.5254490463
H       -0.8890327747   -1.5111962219    1.0613585608
H       -1.8100844167   -1.2011224645   -0.4221910676
H        0.1780200769    1.0090965803   -2.0880824362
H        1.3820576516    1.4408861657   -0.8828869741
H       -0.0512523104   -1.9804052456   -1.7579273614
H        1.3455808103   -0.9446898504   -2.1539935269
H       -2.4730262227    0.4665172897    1.7454146858
H       -0.6930076337    0.8162494236    1.2562582266
H       -0.4128645150    2.7926024471    0.3617654437
H       -0.6233571863    3.0824633761   -1.3938401103
H        2.0787786118   -3.0102195794   -0.7065458812
H        2.8325878127   -1.1814856295    2.4288566053
H        3.3214447418   -2.6152727137    1.5679628923
26   
torsion grid (15,)
C        1.8530255810   -1.3779004725    0.7129218157
C       -1.2102345733   -0.7532048435    0.1556165130
C        0.2933898319    1.0500852976   -1.1521013980
C        0.7742476335   -1.4571339646   -1.3249525089
C       -1.7548185987    0.4789662524    0.9269511741
C       -0.5051333829    2.2672677877   -0.5984095501
C        0.1589205314   -0.3321396957   -0.4566952527
N        1.6633450684   -2.1315738284   -0.3650010555
N        2.6773827086   -1.6210345934    1.7243694086
O       -3.0976625204    2.6684780267    0.0588659375
O       -2.5067553379    0.8674261517   -1.6558776900
O        1.1190235783   -0.2919904333    0.7290159998
S       -2.1912861266    1.6317855428   -0.4379280887
H       -1.0391060611   -1.5989590347    0.8304962817
H       -1.8783034238   -1.0804605564   -0.6423428529
H       -0.0405907338    0.9017843262   -2.1821435637
H        1.3606739233    1.2893240128   -1.1893450330
H        0.0102344407   -2.1427181205   -1.6932333941
H        1.3524768784   -1.0685599695   -2.1677906214
H       -2.5584996032    0.3344634187    1.6439418229
H       -0.7813744546    0.7831573849    1.3031861485
H       -0.1820237523    2.6485037460    0.3698664642
H       -0.5059672921    3.0746828359   -1.3341162178
H        2.1861593308   -2.9755196675   -0.5709752254
H        2.7020392180   -0.9789404273    2.5094774678
H        3.3013883275   -2.4192606169    1.7342350446
26   
torsion grid (30,)
C        1.8616793958   -1.2887423094    0.7304663634
C       -1.2145140611   -0.6869093426    0.0644467568
C        0.3072202011    1.0284259580   -1.2497287195
C        0.7998194608   -1.4797765314   -1.3113704191
C       -1.7725199469    0.5060707515    0.8655292472
C       -0.3929586252    2.2619039999   -0.6341585346
C        0.1734530818   -0.3132075713   -0.5047945983
N        1.7092603462   -2.0824503290   -0.3241002768
N        2.6779015668   -1.4761557792    1.7602325579
O       -2.8798808669    2.8821237157    0.2034776548
O       -2.5828406965    1.1189066619   -1.6318144623
O        1.0983087776   -0.2239603477    0.7012619568
S       -2.1267498436    1.7815172983   -0.3987212063
H       -1.1023609839   -1.5680718287    0.7063031582
H       -1.8733402655   -0.9546455735   -0.7650609002
H       -0.1175062445    0.8731183416   -2.2459874448
H        1.3744969793    1.2352212363   -1.3795359211
H        0.0448769104   -2.2001681333   -1.6294938456
H        1.3614469507   -1.1318675400   -2.1824991920
H       -2.6397090906    0.3143936533    1.4945090948
H       -0.8771468725    0.8365761045    1.3915690352
H        0.0068081559    2.5899947226    0.3261453033
H       -0.3753042627    3.0963008945   -1.3391086872
H        2.2523267497   -2.9223057024   -0.4903591891
H        2.6767815633   -0.8053574326    2.5213189773
H        3.3169636162   -2.2609321130    1.8092059243
26   
torsion grid (45,)
C        1.8534670630   -1.2412392195    0.7640604060
C       -1.2302273222   -0.6609963390    0.0273052583
C        0.2948882659    0.9881685106   -1.2991800706
C        0.7998990384   -1.5199905333   -1.2736947956
C       -1.8108080295    0.5001902062    0.8460018514
C       -0.3206026535    2.2294331253   -0.6318472156
C        0.1680279782   -0.3229975085   -0.5160365554
N        1.7211232292   -2.0691701560   -0.2667384990
N        2.6656811981   -1.3823082488    1.8043179144
O       -2.6871974165    3.0070936767    0.3869456110
O       -2.6489702528    1.3296582702   -1.5561263993
O        1.0721655978   -0.1915274787    0.6982733491
S       -2.0756736380    1.8796636051   -0.3165102774
H       -1.1620745628   -1.5638951229    0.6448986677
H       -1.8804561432   -0.8874048510   -0.8228170737
H       -0.2025716187    0.8332867337   -2.2620005165
H        1.3553187928    1.1692842689   -1.5039245174
H        0.0506258175   -2.2620144709   -1.5540431662
H        1.3519734139   -1.2058417515   -2.1634738954
H       -2.7482952701    0.2722670938    1.3534534855
H       -1.0270924949    0.8227540593    1.5339504716
H        0.1439476739    2.5053332694    0.3167282773
H       -0.2882866215    3.0863639043   -1.3088840747
H        2.2788661510   -2.9047416917   -0.4032795123
H        2.6516771847   -0.6864639183    2.5424763130
H        3.3146819787   -2.1563711465    1.8834727602
26   
torsion grid (60,)
C        1.8612363740   -1.2204300930    0.7601009592
C       -1.2240621061   -0.6899650658   -0.0169158110
C        0.2705250530    0.9453288531   -1.3502192443
C        0.8241780275   -1.5542819839   -1.2769496958
C       -1.8526083036    0.4331121739    0.8116780786
C       -0.2934528886    2.1806336677   -0.6403535328
C        0.1734300361   -0.3505653551   -0.5463828682
N        1.7459203622   -2.0717080317   -0.2539239066
N        2.6694708425   -1.3305852828    1.8069865763
O       -2.5475684478    3.0187650875    0.5603286668
O       -2.7078790642    1.4655488718   -1.4814242569
O        1.0661323055   -0.1830400160    0.6693003888
S       -2.0450894654    1.9035157175   -0.2415477746
H       -1.1685877658   -1.6054979081    0.5832659006
H       -1.8631769197   -0.9017630797   -0.8800525210
H       -0.2808136127    0.7901558276   -2.2835741930
H        1.3184802748    1.1237469665   -1.6135170702
H        0.0864890514   -2.3115674240   -1.5473856830
H        1.3776688040   -1.2500276517   -2.1693108205
H       -2.8511798137    0.1693969384    1.1668692893
H       -1.2204763431    0.7183384684    1.6556494506
H        0.2240206263    2.4239735697    0.2903215301
H       -0.2699031216    3.0534379214   -1.2974795279
H        2.3176238837   -2.9007053184   -0.3716574962
H        2.6443526365   -0.6196636405    2.5303957688
H        3.3281858509   -2.0943257853    1.9042980213
26   
torsion grid (75,)
C        2.2603800066   -1.1865330223    0.1900711777
C       -1.1542291137   -1.0171347715    0.1323063150
C        0.1095128322    0.8061417420   -1.1635808763
C        0.7327669031   -1.6509127483   -1.4795878903
C       -1.7147018702   -0.0494712852    1.1764533501
C       -0.2861133383    1.9251106510   -0.2011421470
C        0.1542695506   -0.5798944068   -0.5178514956
N        2.1091561354   -1.7964505045   -0.9811627441
N        3.3415463372   -1.1902223453    0.9593483026
O       -2.1903325757    2.5607902103    1.5827847015
O       -2.8515678223    1.4786702124   -0.6558376337
O        1.2001635425   -0.5208199840    0.5767129087
S       -1.9394323877    1.6195715348    0.4915098267
H       -1.0171084502   -2.0004702696    0.5943541264
H       -1.8883513508   -1.1345339529   -0.6721016149
H       -0.6142952065    0.7631956034   -1.9841696536
H        1.0872303046    1.0347200446   -1.6032921599
H        0.2004355155   -2.6034564935   -1.4120056209
H        0.7340360023   -1.3078393571   -2.5155767908
H       -2.7236555408   -0.3578829711    1.4647709972
H       -1.1254072970    0.0376997699    2.0922309209
H        0.4057156431    2.0378383459    0.6367820841
H       -0.3678068536    2.8820037989   -0.7227121392
H        2.8072432724   -2.3954967342   -1.4075140441
H        3.3354317792   -0.6602743296    1.8246040710
H        4.1732472538   -1.7184877362    0.7228519584
26   
torsion grid (90,)
C        2.3016120290   -1.1703470260    0.1528027084
C       -1.1234748265   -1.0288413462    0.0841846964
C        0.1306978174    0.7743801977   -1.2252763455
C        0.7749376806   -1.6834301799   -1.5017874405
C       -1.7150310660   -0.0671661138    1.1172955713
C       -0.1901851360    1.9085747046   -0.2562998435
C        0.1887657451   -0.6008135334   -0.5585393493
N        2.1587885286   -1.7913012346   -1.0141180328
N        3.3833664131   -1.1482622967    0.9203393748
O       -1.8702314340    2.5371595849    1.7403121051
O       -2.8021884500    1.7007451176   -0.5087060858
O        1.2297670809   -0.5211524872    0.5361922274
S       -1.7956131398    1.6681951204    0.5654778468
H       -0.9987419264   -2.0114925229    0.5506789245
H       -1.8418032564   -1.1507253362   -0.7338915528
H       -0.6327742599    0.7300288396   -2.0091414626
H        1.0876966261    0.9853094032   -1.7163781025
H        0.2615344803   -2.6440691351   -1.4059764510
H        0.7588405226   -1.3646372701   -2.5453586884
H       -2.7736268773   -0.3127469173    1.2491301090
H       -1.2849802352   -0.0886320816    2.1210619083
H        0.5634194427    2.0207090489    0.5263923629
H       -0.2949258746    2.8598003910   -0.7839723549
H        2.8646743512   -2.3850103945   -1.4351123926
H        3.3687897294   -0.6104551633    1.7808089734
H        4.2233295428   -1.6654898183    0.6885568565
26   
torsion grid (105,)
C        2.2751155016   -1.1283714620    0.1910648031
C       -1.1476717349   -1.0636136231    0.0745305567
C        0.0646719006    0.7415920073   -1.2535080979
C        0.7817802277   -1.7057009521   -1.4731349817
C       -1.8103537414   -0.0994446748    1.0662290232
C       -0.2015126081    1.8921977600   -0.2894365500
C        0.1612628603   -0.6169368115   -0.5584578772
N        2.1589066092   -1.7813227833   -0.9613553659
N        3.3440797043   -1.0686705992    0.9739042214
O       -1.6147362997    2.4350206043    1.9235020052
O       -2.8308465922    1.9289352317   -0.2872727656
O        1.1875094231   -0.4873117845    0.5422100466
S       -1.7390000049    1.6889306648    0.6696489949
H       -1.0012677527   -2.0270810781    0.5732609641
H       -1.8348288225   -1.2412147874   -0.7598397732
H       -0.7364627931    0.6770844480   -1.9976676307
H        0.9933587442    0.9477579987   -1.7977139310
H        0.2832462668   -2.6733129284   -1.3695023402
H        0.7778326504   -1.4050121525   -2.5222914622
H       -2.8898716850   -0.2752123830    1.0333483220
H       -1.5459648898   -0.2066241372    2.1201005256
H        0.6089316462    2.0233596182    0.4301585555
H       -0.3522360734    2.8305038123   -0.8284887104
H        2.8810853377   -2.3715209583   -1.3589699886
H        3.3069136414   -0.5108020508    1.8210384802
H        4.1963328954   -1.5764538529    0.7674833994
26   
torsion grid (120,)
C        2.2173138982   -1.1325133056    0.2662606520
C       -1.2033450670   -0.9806801398   -0.0157142877
C        0.1360419887    0.7065956398   -1.3652925767
C        0.7801765509   -1.7742263423   -1.4214618907
C       -1.8678229422    0.0670626332    0.8941703657
C       -0.0129447118    1.9255150906   -0.4591914874
C        0.1519221469   -0.6189737628   -0.6007513074
N        2.1420790173   -1.8282129378   -0.8656078353
N        3.2500834909   -1.0502743832    1.0932225115
O       -0.9566680518    2.3295764569    2.0018279584
O       -2.5648192332    2.4735385880    0.0007024404
O        1.1227605537   -0.4679345586    0.5437869893
S       -1.4311385045    1.8512676649    0.6981275132
H       -1.1173617819   -1.9200076417    0.5389027525
H       -1.8519607759   -1.1807720711   -0.8750792924
H       -0.6836929453    0.6578896030   -2.0900142082
H        1.0619062116    0.8195901775   -1.9403743708
H        0.2669672147   -2.7270957748   -1.2643232630
H        0.8083032404   -1.5471354986   -2.4884997772
H       -2.9433876568    0.0751154562    0.7061672020
H       -1.7416719794   -0.1252069424    1.9606912355
H        0.8701507052    2.0753971747    0.1627631518
H       -0.1985776537    2.8277129317   -1.0456884700
H        2.8672648165   -2.4527053151   -1.2005527258
H        3.1790634906   -0.4554400496    1.9131379002
H        4.1043713631   -1.5759990833    0.9495410349
26   
torsion grid (135,)
C        2.1676140720   -1.0212194904    0.2802050218
C       -1.2590123399   -1.0274771326   -0.0550034625
C        0.0373845284    0.6917311472   -1.3979443558
C        0.7851663745   -1.7618267360   -1.4104456647
C       -1.9870907223    0.0209667314    0.8162813595
C       -0.1376966940    1.9267591227   -0.5121579510
C        0.0941074570   -0.6234156075   -0.6184848983
N        2.1466987079   -1.7257343048   -0.8499510533
N        3.1799340559   -0.8701953995    1.1215224272
O       -0.5670890221    1.8741647606    2.1071063146
O       -2.4826111990    2.6341748390    0.5746428257
O        1.0329542173   -0.4214786839    0.5391880108
S       -1.3463636645    1.7538190200    0.8649387224
H       -1.1403392332   -1.9485497724    0.5224582743
H       -1.8799872340   -1.2770703006   -0.9214473554
H       -0.7884099768    0.6057224563   -2.1118168490
H        0.9514203654    0.8231354373   -1.9872138090
H        0.3245690960   -2.7372871564   -1.2294427059
H        0.8035118900   -1.5602786571   -2.4827398473
H       -3.0303190105    0.1229405452    0.5171478064
H       -1.9457232940   -0.2613012296    1.8690638786
H        0.7926631433    2.1955599734   -0.0116529690
H       -0.4926702171    2.7764244520   -1.0979977326
H        2.9056692388   -2.3193349041   -1.1655571891
H        3.0551162175   -0.2725902147    1.9337324030
H        4.0661598524   -1.3458627718    0.9991286173
26   
torsion grid (150,)
C        2.2315258042   -1.0315432562    0.2258394772
C       -1.2060277414   -1.0513908043    0.0050792492
C        0.0547883467    0.6512211658   -1.4118502386
C        0.7926515914   -1.8101550407   -1.3946350985
C       -2.0913639593    0.0766889541    0.5912957732
C       -0.0873465937    1.8938710871   -0.5299410094
C        0.1282564001   -0.6494373095   -0.6126921806
N        2.1744250272   -1.7581414136   -0.8896604053
N        3.2703706053   -0.8683496929    1.0322309697
O       -0.5567308915    1.6633014959    2.0733331825
O       -2.3785806903    2.7259610972    0.6080015485
O        1.1086959918   -0.4221081561    0.5077351514
S       -1.3256911027    1.7297534269    0.8200030681
H       -1.0079265007   -1.8084179900    0.7679393014
H       -1.7724115767   -1.5489453164   -0.7891773948
H       -0.7953544910    0.5633348167   -2.0972128915
H        0.9502049247    0.7696348752   -2.0317194698
H        0.3401294990   -2.7793719320   -1.1651544165
H        0.7667497375   -1.6413486323   -2.4725035967
H       -2.9958141374    0.2420889959    0.0060251800
H       -2.3488855989   -0.1891970246    1.6178918046
H        0.8418804711    2.1336411703   -0.0133317361
H       -0.4065215589    2.7526951034   -1.1231232200
H        2.9175906541   -2.3691659927   -1.2094772572
H        3.1695827781   -0.2616335899    1.8409377394
H        4.1491891433   -1.3532252831    0.8941105528
26   
torsion grid (165,)
C        2.2914662043   -1.0401628492    0.1932878766
C       -1.1704074210   -1.0020264129    0.1237300617
C        0.0977956052    0.6603768841   -1.3535841923
C        0.7734371457   -1.8164588960   -1.3489027255
C       -2.1577146746    0.1539330204    0.3821088043
C       -0.0583787188    1.9037689553   -0.4712857373
C        0.1558745292   -0.6402289434   -0.5541608577
N        2.1813900841   -1.7593145677   -0.9236698944
N        3.3678926364   -0.8867946356    0.9513793330
O       -0.6518032026    1.4946698165    2.0918392716
O       -2.3344677742    2.8053078755    0.6586680545
O        1.1852110847   -0.4285012571    0.5297409910
S       -1.3558116685    1.7288081259    0.8202819550
H       -0.9351290999   -1.5108122139    1.0611449108
H       -1.6830206444   -1.7318335484   -0.5113780444
H       -0.7412507145    0.5764732391   -2.0530086659
H        1.0030218111    0.7752497946   -1.9600194503
H        0.3339734270   -2.7800455217   -1.0747320755
H        0.6855101505   -1.6680685888   -2.4265862128
H       -2.8298718160    0.3488322680   -0.4552756978
H       -2.7295769862   -0.0942835090    1.2790120105
H        0.8523677527    2.1268794920    0.0846792707
H       -0.3392505409    2.7696638586   -1.0734246109
H        2.9032141052   -2.3798674006   -1.2727884473
H        3.3077783646   -0.2886232047    1.7701729613
H        4.2343587548   -1.3806658097    0.7729975741
26   
torsion grid (180,)
C        2.3395233851   -1.0857817719    0.1987234262
C       -1.1311315551   -0.9880110592    0.1927373736
C        0.1547235635    0.6479709541   -1.3128438654
C        0.7822730240   -1.8376367584   -1.3144822986
C       -2.1084986909    0.1854980706    0.3335823333
C       -0.0423310706    1.9113570813   -0.4584250166
C        0.1976768354   -0.6525801088   -0.5072986384
N        2.1987704281   -1.8026976320   -0.9164458899
N        3.4319089288   -0.9479486084    0.9368734744
O       -0.5067301275    1.3222475297    2.1085540058
O       -2.2038095445    2.8063924454    0.8827755823
O        1.2494278400   -0.4580419081    0.5558051436
S       -1.2614155929    1.6870369513    0.8988000525
H       -0.8993671611   -1.4023634936    1.1762286244
H       -1.6343061197   -1.7750345652   -0.3782607441
H       -0.6581851326    0.5487633401   -2.0398166643
H        1.0782297569    0.7596844280   -1.8915411040
H        0.3334677347   -2.7944583986   -1.0321262349
H        0.6761452220   -1.6879417755   -2.3903854485
H       -2.6183752796    0.4379032280   -0.5994814303
H       -2.8642973918   -0.0261917742    1.0936312691
H        0.8779682719    2.2069886772    0.0474153841
H       -0.4006309381    2.7404045499   -1.0709140407
H        2.9029574807   -2.4372083605   -1.2762462076
H        3.3937683278   -0.3507234045    1.7576760181
H        4.2875511083   -1.4547201545    0.7434893299
