
  -OEChem-12122420533D

 29 30  0     1  0  0  0  0  0999 V2000
   -0.7119    4.7383    2.8121 C   0  0  0  0  0  0  0  0  0  0  0  0
    0.1944    5.2718    3.7347 C   0  0  0  0  0  0  0  0  0  0  0  0
   -0.3058    3.7079    1.9660 C   0  0  0  0  0  0  0  0  0  0  0  0
    1.4951    4.7723    3.8056 C   0  0  0  0  0  0  0  0  0  0  0  0
    0.9957    3.1850    2.0195 C   0  0  0  0  0  0  0  0  0  0  0  0
    1.8858    3.7356    2.9531 C   0  0  0  0  0  0  0  0  0  0  0  0
    0.3048    0.1872    2.2168 C   0  0  0  0  0  0  0  0  0  0  0  0
   -0.2874   -1.4953    3.6861 C   0  0  0  0  0  0  0  0  0  0  0  0
    0.6776   -0.4941    4.3461 C   0  0  0  0  0  0  0  0  0  0  0  0
    1.4912    2.5400   -0.3897 C   0  0  0  0  0  0  0  0  0  0  0  0
    1.4083    2.0785    1.0656 C   0  0  2  0  0  0  0  0  0  0  0  0
   -0.6069   -0.7685    2.4424 N   0  0  0  0  0  0  0  0  0  0  0  0
    0.4460    0.9329    1.1388 N   0  3  0  0  0  0  0  0  0  0  0  0
    1.1260    0.3600    3.2333 O   0  0  0  0  0  0  0  0  0  0  0  0
    3.5372    3.1461    3.0840 Cl  0  0  0  0  0  0  0  0  0  0  0  0
   -1.7229    5.1292    2.7481 H   0  0  0  0  0  0  0  0  0  0  0  0
   -0.1059    6.0790    4.3963 H   0  0  0  0  0  0  0  0  0  0  0  0
   -1.0129    3.3043    1.2442 H   0  0  0  0  0  0  0  0  0  0  0  0
    2.2084    5.1813    4.5139 H   0  0  0  0  0  0  0  0  0  0  0  0
    0.1863   -2.4552    3.4620 H   0  0  0  0  0  0  0  0  0  0  0  0
   -1.1864   -1.6586    4.2817 H   0  0  0  0  0  0  0  0  0  0  0  0
    0.1888    0.1625    5.0667 H   0  0  0  0  0  0  0  0  0  0  0  0
    1.5674   -0.9457    4.7793 H   0  0  0  0  0  0  0  0  0  0  0  0
    0.5305    2.9297   -0.7421 H   0  0  0  0  0  0  0  0  0  0  0  0
    1.8157    1.7260   -1.0453 H   0  0  0  0  0  0  0  0  0  0  0  0
    2.2206    3.3491   -0.4618 H   0  0  0  0  0  0  0  0  0  0  0  0
    2.3768    1.6810    1.3672 H   0  0  0  0  0  0  0  0  0  0  0  0
   -1.2232   -1.1337    1.7258 H   0  0  0  0  0  0  0  0  0  0  0  0
   -0.1828    0.7782    0.3583 H   0  0  0  0  0  0  0  0  0  0  0  0
  1  2  1  0  0  0  0
  1  3  2  0  0  0  0
  1 16  1  0  0  0  0
  2  4  2  0  0  0  0
  2 17  1  0  0  0  0
  3  5  1  0  0  0  0
  3 18  1  0  0  0  0
  4  6  1  0  0  0  0
  4 19  1  0  0  0  0
  5  6  2  0  0  0  0
  5 11  1  0  0  0  0
  6 15  1  0  0  0  0
  7 12  1  0  0  0  0
  7 13  2  0  0  0  0
  7 14  1  0  0  0  0
  8  9  1  0  0  0  0
  8 12  1  0  0  0  0
  8 20  1  0  0  0  0
  8 21  1  0  0  0  0
  9 14  1  0  0  0  0
  9 22  1  0  0  0  0
  9 23  1  0  0  0  0
 10 11  1  0  0  0  0
 10 24  1  0  0  0  0
 10 25  1  0  0  0  0
 10 26  1  0  0  0  0
 11 13  1  0  0  0  0
 11 27  1  0  0  0  0
 12 28  1  0  0  0  0
 13 29  1  0  0  0  0
M  CHG  1  13   1
M  END
$$$$
