29
1 1 C11ClH14N2O
C                    -1.953150247688    -4.602072349449     0.565939273206
C                    -1.333939350280    -4.608689572882     1.967658963861
H                    -1.977914508164    -5.207240481800     2.619934710804
C                     0.055595865763    -5.226966842937     2.011898284509
C                     0.188450805226    -6.498555771951     2.595331468369
C                     1.417503951453    -7.159996450132     2.641625674086
C                     2.550650713384    -6.545763173488     2.103220914638
C                     2.448457587408    -5.279709824397     1.521519844207
C                     1.211992282451    -4.632281245453     1.476300947749
Cl                    1.164737884685    -3.037888910283     0.733274039731
N                    -1.367102944282    -3.223131462251     2.506440248770
C                    -0.830840193639    -2.831277140069     3.644067665272
N                    -0.207801074828    -3.588650772533     4.551992462885
C                     0.428651765506    -2.731058744690     5.569594545056
C                    -0.324501382364    -1.409031432719     5.335186979837
O                    -0.897649223953    -1.554970665015     3.985746393899
H                    -1.360019880858    -4.006791649856    -0.131159296927
H                    -1.993056358411    -5.626824086704     0.192026990108
H                    -2.975555041680    -4.212356617587     0.597914890829
H                    -0.694659608245    -6.982270818108     3.007713056104
H                     1.486331507069    -8.145976801940     3.090827819605
H                     3.513886790548    -7.046445969399     2.129492658109
H                     3.321161667530    -4.794029742170     1.096794002093
H                    -1.762032219983    -2.486072752400     1.930163662799
H                     0.135291657641    -4.515947340217     4.315559350181
H                     0.265091916364    -3.129725260356     6.571445662260
H                     1.501816216523    -2.644966639697     5.378011952678
H                    -1.161317807081    -1.265276876786     6.019865030571
H                     0.312394352836    -0.527035254783     5.318156961801
