28
1 1 C11H13N2OS
C                    -3.590453187155    -5.746904831180     4.996389049610
C                    -3.869322639665    -6.533616132871     3.866459325279
C                    -3.028119695712    -6.542276393096     2.747204878031
C                    -1.896775507155    -5.732909337524     2.801299939015
C                    -1.608163129598    -4.938608523359     3.916013611870
C                    -2.451145109124    -4.935059337099     5.028472788721
C                    -0.372346929283    -4.140881900600     3.596385433023
H                     0.358151665938    -4.099069968736     4.408086075426
C                     0.160268292807    -4.908986865889     2.362828290220
O                    -0.968140724390    -5.608377032641     1.798178547792
N                    -0.771333427825    -2.733967398979     3.278564484311
C                     0.062306615977    -1.716641817191     3.145535217999
N                    -0.296511628035    -0.484518972175     2.759569500441
C                     0.726310427479     0.561058645333     2.940055945225
C                     2.066829043311    -0.165328909725     2.807632793199
S                     1.772866694738    -1.864453474255     3.475076780456
H                    -4.258623396049    -5.776502363460     5.851219555596
H                    -4.756140384005    -7.160905370201     3.862067419019
H                    -3.235882145895    -7.157663815820     1.877870556052
H                    -2.227612860557    -4.328249511827     5.902527069788
H                     0.590085994461    -4.269563928501     1.590660032428
H                     0.902831191788    -5.645198796950     2.687965389042
H                    -1.765495203275    -2.586140639198     3.119464805289
H                    -1.273481065632    -0.237114502448     2.633311284086
H                     0.611406036269     1.324539834784     2.168674759157
H                     0.614951359535     1.022943935610     3.926636283447
H                     2.385605760151    -0.260878104694     1.768667779407
H                     2.852924276894     0.307279564048     3.395755402622
