18   
torsion grid (-45,)
C        0.8232807917    0.0736696224    2.5523583217
C        0.2970681427    0.9698957992    3.4359771320
C       -0.1944619727    0.1959305929    1.4768062333
C        0.6937137731   -1.3613286002   -0.3635440401
C       -1.1069123312    0.3365897056   -0.9472092737
C        0.1875609197    1.0720454269   -0.9299261608
C       -0.0209182905   -0.1150267476    0.0344450813
N       -1.2724666441    0.8461038503    1.8985089444
O        0.9271915899   -1.6857629889   -1.5139753389
O       -1.0601574344    0.8705520438    3.3163947348
O        1.0658746174   -2.1328457322    0.6925990772
H        1.8526549876   -0.2259519485    2.4138141557
H        0.6415917228    1.3110426256    4.4092952791
H       -1.9754958146    0.7968313823   -0.4907365612
H       -1.2933142894   -0.3375739594   -1.7755917571
H        0.8876263328    0.9022430964   -1.7410408033
H        0.2224791013    2.0465366434   -0.4539658836
H        1.5010466242   -2.9184576527    0.3083723945
18   
torsion grid (-30,)
C        0.8216131903    0.1223113111    2.5239852685
C        0.2809630206    0.9112359022    3.4955510187
C       -0.1677270351    0.2358706027    1.4675707362
C        0.6918700086   -1.3501603734   -0.3655186119
C       -1.1200151347    0.3348247462   -0.9446870775
C        0.1733564223    1.0730833868   -0.9575327273
C       -0.0180366295   -0.0992710465    0.0264611572
N       -1.2546580635    0.8575495882    1.8944621622
O        0.9059732242   -1.6902745897   -1.5153519405
O       -1.0586541848    0.9852691116    3.2894013630
O        1.0854983710   -2.1067934068    0.6937173715
H        1.8403712499   -0.2231105315    2.4274887457
H        0.6034757181    1.1653895193    4.4995570253
H       -1.9827809814    0.8005695642   -0.4831733118
H       -1.3166917828   -0.3517066158   -1.7604189076
H        0.8608777054    0.8932389398   -1.7770942764
H        0.2128024557    2.0548310887   -0.4971624183
H        1.5153523956   -2.8959230116    0.3107257302
18   
torsion grid (-15,)
C        0.8272163355    0.1668510193    2.5031100583
C        0.2505374688    0.8381761142    3.5371289537
C       -0.1543505465    0.2633707729    1.4587255656
C        0.6901178711   -1.3416362387   -0.3678658198
C       -1.1296229132    0.3344295143   -0.9448912976
C        0.1618855325    1.0752470390   -0.9764723977
C       -0.0172769321   -0.0878294996    0.0199367832
N       -1.2543842248    0.8509559079    1.8914294317
O        0.8959978157   -1.6905297272   -1.5167044116
O       -1.0530647294    1.0712865603    3.2624113779
O        1.0923151260   -2.0910969153    0.6932398102
H        1.8350105895   -0.2134452632    2.4315527103
H        0.5573019001    1.0465262740    4.5545614456
H       -1.9890871651    0.8031238973   -0.4804888593
H       -1.3317925583   -0.3605186228   -1.7520794293
H        0.8418898216    0.8891112358   -1.8008090938
H        0.2030686749    2.0615745685   -0.5261963716
H        1.5188794623   -2.8824872922    0.3112386141
18   
torsion grid (0,)
C        0.8458490462    0.2077207194    2.4961437843
C        0.2283978109    0.7648736508    3.5723700022
C       -0.1394195257    0.2924694763    1.4593631712
C        0.6893229199   -1.3313458639   -0.3616300696
C       -1.1393302722    0.3354446191   -0.9339940095
C        0.1494875243    1.0789139407   -0.9855734573
C       -0.0157795511   -0.0753708954    0.0237843301
N       -1.2479066407    0.8580137930    1.8988670068
O        0.8850567382   -1.6867119042   -1.5103763888
O       -1.0201804668    1.1612706949    3.2456875312
O        1.1009471864   -2.0755196528    0.6996880938
H        1.8363285742   -0.2169158349    2.4379638721
H        0.5268332681    0.9389158444    4.5979617558
H       -1.9952887198    0.8062725758   -0.4654813036
H       -1.3474233365   -0.3681856333   -1.7320658149
H        0.8219772219    0.8865866372   -1.8145916942
H        0.1923908207    2.0694676329   -0.5449322558
H        1.5235441488   -2.8687120527    0.3169910032
18   
torsion grid (15,)
C        0.8755760205    0.2452425111    2.4898576988
C        0.2135759223    0.6972824013    3.5900175859
C       -0.1156820013    0.3228929113    1.4531844611
C        0.6994445294   -1.3269703728   -0.3543328693
C       -1.1409676524    0.3250225321   -0.9286709948
C        0.1432941718    1.0731740084   -1.0036368896
C       -0.0054326761   -0.0683473591    0.0236811035
N       -1.2277925937    0.8792553843    1.8983020837
O        0.8860193380   -1.6924689447   -1.5014668438
O       -0.9575224719    1.2633174082    3.2203427950
O        1.1206957042   -2.0613537005    0.7100799224
H        1.8418752668   -0.2335602415    2.4441811275
H        0.4969560021    0.8430300186    4.6248217539
H       -1.9941649220    0.7985121602   -0.4579788884
H       -1.3532724646   -0.3911215178   -1.7143788392
H        0.8083387852    0.8717446452   -1.8364620115
H        0.1861640242    2.0697841973   -0.5770158680
H        1.5406656510   -2.8572727760    0.3301097508
18   
torsion grid (30,)
C        0.9070892748    0.2858184649    2.4891425899
C        0.1842889430    0.6297021428    3.5932189387
C       -0.1003880708    0.3516200106    1.4463735165
C        0.7078184572   -1.3226762267   -0.3459925814
C       -1.1453763282    0.3140272404   -0.9235082414
C        0.1336549285    1.0676536529   -1.0188603655
C        0.0008395608   -0.0624842925    0.0243216514
N       -1.2232059926    0.8891849978    1.8986637181
O        0.8925813207   -1.6973812280   -1.4904360443
O       -0.8923366503    1.3522439875    3.1923807960
O        1.1313592865   -2.0494129067    0.7228195569
H        1.8496672637   -0.2393628231    2.4461942764
H        0.4454721396    0.7391177070    4.6400056790
H       -1.9968426857    0.7889342961   -0.4511819935
H       -1.3603086429   -0.4135424228   -1.6978833431
H        0.7936814867    0.8589100975   -1.8538354126
H        0.1743381994    2.0696736787   -0.6049669289
H        1.5507193618   -2.8478078013    0.3472959872
18   
torsion grid (45,)
C        0.9543912721    0.3283576186    2.4945107646
C        0.1578018349    0.5664557240    3.5769008704
C       -0.0852109985    0.3909286750    1.4357822092
C        0.7174933935   -1.3147792834   -0.3346120698
C       -1.1513591476    0.3009506630   -0.9200063953
C        0.1206498164    1.0619268972   -1.0389602622
C        0.0064755415   -0.0530694203    0.0242647860
N       -1.2192900177    0.9103325861    1.8975619870
O        0.9032967888   -1.6995773505   -1.4754264936
O       -0.8023059534    1.4432644416    3.1598979620
O        1.1397435755   -2.0326485039    0.7408635102
H        1.8646989551   -0.2516533183    2.4422881495
H        0.3754724459    0.6067268770    4.6410590274
H       -2.0018715044    0.7775351734   -0.4476768242
H       -1.3677124353   -0.4412091885   -1.6799918880
H        0.7760923347    0.8435535019   -1.8750722149
H        0.1570621616    2.0708178339   -0.6417797713
H        1.5596393687   -2.8341009950    0.3723885387
