13   
torsion grid (-165,)
C       -0.2565882196   -0.3634290801    1.6972311541
C       -0.0337325569    2.3008354629   -0.6907179214
C        0.4114926130   -0.7414795828   -0.7116952384
C       -1.0664712261   -0.5008041490   -0.6876667339
C       -0.1804901584    0.1891315833    0.3537925274
N       -0.3378836014   -0.8543620409    2.7490918558
N        0.1324330135    1.5902341542    0.3499891019
H        0.2383642626    3.3560984837   -0.6394334734
H       -0.4298017806    1.9417979500   -1.6506811524
H        0.7949664448   -1.7008192408   -0.3808536923
H        1.0063186511   -0.2351506728   -1.4662866423
H       -1.5064634337    0.1386463509   -1.4464908539
H       -1.7158496318   -1.2899597291   -0.3243378693
13   
torsion grid (-150,)
C       -0.2640175585   -0.3293087113    1.6753637220
C       -0.0814758651    2.3306706509   -0.6529217873
C        0.4394668863   -0.7988354913   -0.7002116376
C       -1.0326933410   -0.4994071753   -0.7225598054
C       -0.1444813336    0.1822961197    0.3190530585
N       -0.3837068555   -0.7811241484    2.7410249993
N        0.2772958096    1.5572350188    0.2893946636
H        0.2881787979    3.3572863508   -0.6424325431
H       -0.7427284326    2.0514171442   -1.4835893804
H        0.7787565094   -1.7614209104   -0.3325833753
H        1.0670577089   -0.3391155270   -1.4575731810
H       -1.4242501947    0.1130414952   -1.5276970078
H       -1.7211077547   -1.2519953262   -0.3533266636
13   
torsion grid (-135,)
C       -0.2646547443   -0.2823342885    1.6464631874
C       -0.1298096492    2.3536680045   -0.6003995215
C        0.4624549488   -0.8613376550   -0.6943924304
C       -0.9984582118   -0.4980715021   -0.7633103347
C       -0.1003487698    0.1720476964    0.2755433854
N       -0.4221665400   -0.6790916149    2.7290860831
N        0.3970534941    1.5251487303    0.2064588075
H        0.2830401302    3.3630134351   -0.6432741516
H       -0.9790102175    2.1323439205   -1.2595273599
H        0.7497809640   -1.8259067172   -0.2897061900
H        1.1225690300   -0.4582056246   -1.4562116529
H       -1.3347030926    0.0996752825   -1.6034879228
H       -1.7294529654   -1.2102101774   -0.3953008375
13   
torsion grid (-120,)
C       -0.2646411218   -0.2232935001    1.6116331544
C       -0.1723569344    2.3687254572   -0.5381940669
C        0.4802564019   -0.9243600687   -0.6943899578
C       -0.9644714920   -0.5008474049   -0.8062231232
C       -0.0530012164    0.1595598518    0.2268150522
N       -0.4602957282   -0.5537824712    2.7103618137
N        0.4919347719    1.4965526051    0.1053300151
H        0.2449529475    3.3731130747   -0.6305795248
H       -1.1461318968    2.1822622846   -1.0095837344
H        0.7154242106   -1.8881000946   -0.2555651585
H        1.1694663918   -0.5773164045   -1.4581876031
H       -1.2506021108    0.0900041670   -1.6700064687
H       -1.7342398467   -1.1717780069   -0.4394693362
13   
torsion grid (-105,)
C       -0.2684078776   -0.1551208127    1.5688061146
C       -0.2063505181    2.3799864647   -0.4701858085
C        0.4944765125   -0.9830331792   -0.6960837208
C       -0.9340258169   -0.5147842293   -0.8505501482
C       -0.0139516768    0.1481101127    0.1729961410
N       -0.4980633132   -0.4138549305    2.6803856723
N        0.5590882032    1.4723137979   -0.0146093171
H        0.2027352433    3.3831843008   -0.6042081932
H       -1.2590413249    2.2206723059   -0.7397024245
H        0.6860131598   -1.9400649658   -0.2228006826
H        1.2077745279   -0.6873476674   -1.4594696112
H       -1.1800174691    0.0679569201   -1.7326390629
H       -1.7339352737   -1.1472786277   -0.4799978971
13   
torsion grid (-90,)
C       -0.2822707313   -0.0858812054    1.5169986162
C       -0.2286163161    2.3960426545   -0.3954458885
C        0.5059126726   -1.0340994558   -0.6963512512
C       -0.9085857377   -0.5449943993   -0.9001859591
C        0.0046048752    0.1407183862    0.1144249387
N       -0.5300752487   -0.2748178120    2.6389956851
N        0.5887037688    1.4524432725   -0.1500492536
H        0.1720398362    3.3946458412   -0.5801234068
H       -1.3192633445    2.2703328287   -0.4361871264
H        0.6647415292   -1.9764046362   -0.1831760253
H        1.2430115579   -0.7804787062   -1.4521186083
H       -1.1248467046    0.0198068725   -1.8018724443
H       -1.7290617807   -1.1465741511   -0.5229682148
13   
torsion grid (-75,)
C       -0.3109826094   -0.0235287632    1.4591528566
C       -0.2361309613    2.4228639762   -0.3213603861
C        0.5158845118   -1.0714368121   -0.6908214513
C       -0.8907589996   -0.5955562690   -0.9535288545
C       -0.0083917264    0.1405903439    0.0520032338
N       -0.5575928017   -0.1576455924    2.5895580380
N        0.5681370605    1.4368269321   -0.2989217819
H        0.1570221880    3.4077644672   -0.5803924487
H       -1.3080214373    2.3499682933   -0.0917751148
H        0.6578381147   -1.9895819281   -0.1311175978
H        1.2755215086   -0.8471277831   -1.4330806276
H       -1.0851152708   -0.0645908720   -1.8802537262
H       -1.7211152007   -1.1778065033   -0.5675210777
13   
torsion grid (-60,)
C       -0.3556212714    0.0262669475    1.4027763260
C       -0.2306111540    2.4541279935   -0.2545276846
C        0.5244848644   -1.0917150203   -0.6815521958
C       -0.8793937907   -0.6591191102   -1.0056256079
C       -0.0499892588    0.1454116446   -0.0086423228
N       -0.5871918283   -0.0665636314    2.5407182269
N        0.4930740724    1.4242841307   -0.4445315092
H        0.1444524010    3.4193770491   -0.5992847365
H       -1.2043845564    2.4425932394    0.2534773103
H        0.6669146452   -1.9779677320   -0.0728347303
H        1.3032962575   -0.8810440259   -1.4070769457
H       -1.0581006002   -0.1689339346   -1.9573427140
H       -1.7106354040   -1.2359780608   -0.6136123545
13   
torsion grid (-45,)
C       -0.4132064923    0.0642132719    1.3539071787
C       -0.2096876389    2.4792570691   -0.1980626862
C        0.5350910582   -1.0923704295   -0.6781797696
C       -0.8740482902   -0.7251720742   -1.0416558388
C       -0.0988926320    0.1500070084   -0.0592765981
N       -0.6458348569    0.0107115643    2.4942137398
N        0.3871342196    1.4155578174   -0.5635436034
H        0.1301970531    3.4288831392   -0.6143233596
H       -1.0270542606    2.5118638624    0.5342789430
H        0.6977229503   -1.9471861190   -0.0308494241
H        1.3202869681   -0.8781956229   -1.3952597023
H       -1.0542699828   -0.2729672755   -2.0113475034
H       -1.6911437192   -1.3138627219   -0.6379603142
13   
torsion grid (-30,)
C       -0.4816062949    0.0922619059    1.3120006211
C       -0.1735894907    2.4962793979   -0.1503675507
C        0.5461111374   -1.0776838470   -0.6797210302
C       -0.8729100202   -0.7875848095   -1.0628231832
C       -0.1499255248    0.1543850686   -0.0998296057
N       -0.7288631608    0.0718817416    2.4502588128
N        0.2688877557    1.4131098919   -0.6531988926
H        0.1245285278    3.4367193309   -0.6158953452
H       -0.8147561010    2.5511314664    0.7386216331
H        0.7427729938   -1.9009376033   -0.0016376367
H        1.3275981935   -0.8497880558   -1.3962797255
H       -1.0670435204   -0.3693899427   -2.0446969766
H       -1.6649101189   -1.3996450554   -0.6444900588
13   
torsion grid (-15,)
C       -0.5565360065    0.1113290731    1.2776599901
C       -0.1274183645    2.5040620324   -0.1139562907
C        0.5567069838   -1.0509464596   -0.6837461748
C       -0.8734813119   -0.8446028546   -1.0723314739
C       -0.2030983303    0.1579364195   -0.1302534927
N       -0.8268423662    0.1204757544    2.4107739322
N        0.1433468294    1.4161972219   -0.7186205572
H        0.1296966862    3.4414839872   -0.6087067748
H       -0.5890738060    2.5631913688    0.8794463261
H        0.7964502926   -1.8426111506    0.0177387147
H        1.3271167673   -0.8005969018   -1.4046365205
H       -1.0887297388   -0.4571662727   -2.0621638752
H       -1.6318432588   -1.4880127284   -0.6392627415
13   
torsion grid (0,)
C       -0.6351398467    0.1223534710    1.2521213556
C       -0.0756910332    2.5036532705   -0.0925136200
C        0.5663125310   -1.0130725769   -0.6863070497
C       -0.8738537674   -0.8924402064   -1.0720468645
C       -0.2564902364    0.1621924020   -0.1496581937
N       -0.9351447898    0.1412826018    2.3775855310
N        0.0136521589    1.4247294047   -0.7637005450
H        0.1399697652    3.4423398498   -0.6042644752
H       -0.3548509924    2.5538083284    0.9670706306
H        0.8525237378   -1.7754357499    0.0301123464
H        1.3203058785   -0.7351831116   -1.4144456649
H       -1.1127893652   -0.5324770869   -2.0666843651
H       -1.5925096639   -1.5710111069   -0.6253280236
13   
torsion grid (15,)
C       -0.7168620708    0.1247294477    1.2346836554
C       -0.0206165749    2.4951454045   -0.0853184448
C        0.5733535834   -0.9656400769   -0.6844545663
C       -0.8728557098   -0.9313577324   -1.0669494491
C       -0.3117290609    0.1670486451   -0.1593746236
N       -1.0477709238    0.1389361479    2.3515517531
N       -0.1200092945    1.4382403010   -0.7892064062
H        0.1511095518    3.4397110754   -0.6029587829
H       -0.1109675306    2.5232148665    1.0076214954
H        0.9058647055   -1.7002577308    0.0410869129
H        1.3090773005   -0.6577994329   -1.4194058718
H       -1.1333616633   -0.5948172435   -2.0643321978
H       -1.5489379362   -1.6464141823   -0.6110024126
13   
torsion grid (30,)
C       -0.7997194197    0.1188675596    1.2267499726
C        0.0349255188    2.4788382354   -0.0946776163
C        0.5771525490   -0.9086291469   -0.6745737304
C       -0.8700207340   -0.9595648193   -1.0588194489
C       -0.3726699951    0.1730108869   -0.1595297598
N       -1.1564498684    0.1076990112    2.3357158168
N       -0.2610323527    1.4573166510   -0.7952301486
H        0.1571901107    3.4339337987   -0.6073765448
H        0.1488952555    2.4707390005    0.9968104419
H        0.9514800151   -1.6178170426    0.0560515684
H        1.2951893791   -0.5664818878   -1.4121402702
H       -1.1467569190   -0.6435213238   -2.0586416786
H       -1.5018891626   -1.7136514333   -0.6023975404
13   
torsion grid (45,)
C       -0.8829040735    0.1029127410    1.2282279184
C        0.0855718784    2.4547034466   -0.1185256079
C        0.5777626805   -0.8457237396   -0.6535261928
C       -0.8632247656   -0.9759979931   -1.0525482782
C       -0.4371162782    0.1780798594   -0.1497762658
N       -1.2580839850    0.0609597790    2.3303888277
N       -0.4070763677    1.4817257979   -0.7756977656
H        0.1480382819    3.4274765352   -0.6088280202
H        0.4262661245    2.3907445291    0.9232584162
H        0.9851279196   -1.5362239627    0.0775301731
H        1.2825828975   -0.4668094273   -1.3862958732
H       -1.1454989389   -0.6729885453   -2.0550914330
H       -1.4551509972   -1.7681195306   -0.6071748370
13   
torsion grid (60,)
C       -0.9626119366    0.0767205079    1.2402753451
C        0.1285744915    2.4244303642   -0.1588417132
C        0.5743764515   -0.7805684958   -0.6160239911
C       -0.8525729986   -0.9767396078   -1.0503070743
C       -0.5045968447    0.1832468746   -0.1303761642
N       -1.3439584548   -0.0036898028    2.3381155679
N       -0.5543536602    1.5115350115   -0.7251101410
H        0.1282260269    3.4213017070   -0.6032314280
H        0.7069124617    2.2832923043    0.7642031299
H        1.0001875686   -1.4624060800    0.1128217749
H        1.2753390529   -0.3640110539   -1.3323127962
H       -1.1254242271   -0.6781654721   -2.0571566469
H       -1.4138035547   -1.8042067677   -0.6301148011
13   
torsion grid (75,)
C       -1.0360525207    0.0370240985    1.2651532453
C        0.1614874145    2.3893059895   -0.2150471998
C        0.5683961522   -0.7167407175   -0.5634304683
C       -0.8372929514   -0.9591098111   -1.0530593575
C       -0.5711164908    0.1872041446   -0.0986391162
N       -1.4067142481   -0.0864439662    2.3624165290
N       -0.6893030680    1.5413088687   -0.6353877113
H        0.1028024369    3.4121755338   -0.5918701234
H        0.9528526716    2.1616686108    0.5122231675
H        0.9965102697   -1.4036521885    0.1592878227
H        1.2761889153   -0.2607171616   -1.2487352679
H       -1.0828574915   -0.6510612849   -2.0645426081
H       -1.3786067133   -1.8202226265   -0.6764278503
13   
torsion grid (90,)
C       -0.1350921259   -0.1053736187    1.5109101845
C        0.2999676005    2.3273426538   -0.4161205450
C        0.1628978046   -0.6849213504   -0.9424851437
C       -1.3096308626   -0.7970680276   -0.6245444433
C       -0.4627871489    0.2017369310    0.1327050073
N        0.1441947354   -0.3629924113    2.6116370791
N       -0.7100879118    1.6220065053   -0.0983551439
H        0.1555778709    3.3972182266   -0.5784993536
H        1.3154105553    1.9268632062   -0.5404074693
H        0.8285215050   -1.4802852664   -0.6235942059
H        0.4455399478   -0.1854742210   -1.8641349857
H       -2.0134975685   -0.3558552901   -1.3236670115
H       -1.6647200254   -1.6724578477   -0.0915029072
13   
torsion grid (105,)
C       -0.1616130902   -0.1702921438    1.5642520826
C        0.2687008701    2.3181632276   -0.4876041959
C        0.1987833883   -0.6620388195   -0.8962136462
C       -1.2853910799   -0.7506137518   -0.6260205063
C       -0.4380530518    0.2031546546    0.1898286944
N        0.0800758327   -0.4911596847    2.6569229634
N       -0.6657509959    1.6319088500    0.0350522492
H        0.1209936856    3.3940263817   -0.5990605856
H        1.2208785643    1.8973683942   -0.8375698676
H        0.8365013600   -1.4822321141   -0.5834453017
H        0.5161407971   -0.1520984840   -1.8003357941
H       -1.9566932929   -0.2737799798   -1.3338065084
H       -1.6782786108   -1.6316670409   -0.1300585221
13   
torsion grid (120,)
C       -0.1798395415   -0.2348762936    1.6078661055
C        0.2279200911    2.3161970683   -0.5540264665
C        0.2353966887   -0.6572219373   -0.8544261866
C       -1.2565981374   -0.6977636189   -0.6259905859
C       -0.3933088123    0.2036420804    0.2399424297
N        0.0093086017   -0.6156188796    2.6913627644
N       -0.5855504244    1.6367635127    0.1478629842
H        0.0758577091    3.3951511259   -0.6187132860
H        1.0814635851    1.8926704556   -1.0993401315
H        0.8338534021   -1.5066646973   -0.5421762731
H        0.5953609398   -0.1501529633   -1.7434648197
H       -1.8918075855   -0.1779111767   -1.3366325254
H       -1.6957621399   -1.5734751865   -0.1603229473
13   
torsion grid (135,)
C       -0.1917015822   -0.2930088827    1.6432037993
C        0.1780540242    2.3137962789   -0.6113494452
C        0.2718193350   -0.6634012633   -0.8146287530
C       -1.2233846811   -0.6412379667   -0.6279429508
C       -0.3406145758    0.2029758271    0.2850010638
N       -0.0571618170   -0.7283729927    2.7140232439
N       -0.4787278824    1.6389972638    0.2420705000
H        0.0352742439    3.3955898085   -0.6311889545
H        0.8883457192    1.8898146710   -1.3326592607
H        0.8224190149   -1.5430048510   -0.4983258795
H        0.6832638911   -0.1625469455   -1.6841772565
H       -1.8158760845   -0.0744168379   -1.3394863041
H       -1.7154152289   -1.5044446199   -0.1925987407
13   
torsion grid (150,)
C       -0.2019285210   -0.3387293502    1.6724710153
C        0.1214536542    2.3045576375   -0.6595630018
C        0.3076403692   -0.6738234203   -0.7766240696
C       -1.1856529547   -0.5866125712   -0.6361188293
C       -0.2920645500    0.2011592408    0.3248808047
N       -0.1191796676   -0.8176237258    2.7297832246
N       -0.3486386570    1.6384980741    0.3152488676
H        0.0288861765    3.3914100728   -0.6299297042
H        0.6220352732    1.8744251342   -1.5368586362
H        0.8070213378   -1.5816268976   -0.4554554924
H        0.7787703999   -0.1732602954   -1.6157465553
H       -1.7318613384    0.0265993174   -1.3463638171
H       -1.7301871456   -1.4342337268   -0.2337827445
13   
torsion grid (165,)
C       -0.2170812979   -0.3685889595    1.6956447666
C        0.0636064919    2.2881649474   -0.6945408699
C        0.3437773935   -0.6841614543   -0.7432987480
C       -1.1439406146   -0.5392103063   -0.6504153936
C       -0.2533074967    0.1985754797    0.3566310874
N       -0.1827702611   -0.8745671140    2.7429479739
N       -0.1974357539    1.6331065400    0.3630000519
H        0.0747930352    3.3773547501   -0.6329884956
H        0.2793156223    1.8495692443   -1.6786194566
H        0.7962361947   -1.6165760782   -0.4233715673
H        0.8725046939   -0.1706978613   -1.5402318022
H       -1.6464818181    0.1098212978   -1.3616105947
H       -1.7329218126   -1.3720509963   -0.2812058901
13   
torsion grid (180,)
C       -0.2382042916   -0.3779248198    1.7053450996
C        0.0126106020    2.2820332104   -0.7068017224
C        0.3786144726   -0.7023304934   -0.7235448116
C       -1.1032624461   -0.5094983140   -0.6652714616
C       -0.2164593828    0.1949790331    0.3685567385
N       -0.2626153326   -0.8895804178    2.7501600488
N       -0.0310703696    1.6175586282    0.3762153088
H        0.1560189304    3.3614148576   -0.6409536151
H       -0.0818283351    1.8607146269   -1.7178473708
H        0.7958733490   -1.6523709890   -0.4074982569
H        0.9448573120   -0.1783042294   -1.4880565907
H       -1.5744517809    0.1487464599   -1.3895063187
H       -1.7237883509   -1.3246980630   -0.3088559861
