20   
torsion grid (-165,)
C        5.9349063782    1.0078165429    0.2580321369
C        4.7397230971    1.3513443492    0.8976549500
C        5.9371219056    0.0197551643   -0.7351788611
C        3.5497085755    0.7057229948    0.5520111917
C        4.7486190528   -0.6183717179   -1.0856210714
C        3.5432034953   -0.2859617555   -0.4431861681
C        2.2932506851   -1.0022883027   -0.8639857801
C       -0.0755835188   -1.7977887725   -0.3727465535
C        1.0065124915   -0.7571449383   -0.0834406732
O        2.3121772373   -1.7783815423   -1.8131474426
H        6.8607551809    1.5077479921    0.5311905026
H        4.7351819628    2.1207207477    1.6652383586
H        6.8652692530   -0.2479190365   -1.2334778991
H        2.6306872278    0.9866012941    1.0566081582
H        4.7269502832   -1.3820817186   -1.8568386362
H       -0.3267890526   -1.8194467205   -1.4356771146
H       -0.9825150564   -1.5720597399    0.1969727757
H        0.2650484393   -2.7998982292   -0.0968638352
H        0.6530255173    0.2524166935   -0.3357781700
H        1.2347960319   -0.7325385525    0.9879259358
20   
torsion grid (-150,)
C        5.9352910424    0.9155465427    0.3020603793
C        4.7455525132    1.2936201221    0.9316849395
C        5.9093998937   -0.0381977838   -0.7240641658
C        3.5346832713    0.7127698995    0.5450501936
C        4.7003134921   -0.6079315066   -1.1181875312
C        3.4993993277   -0.2442438531   -0.4830910300
C        2.2280761774   -0.8856429607   -0.9565963906
C       -0.0115092974   -1.8809339055   -0.2820166547
C        0.9403759237   -0.6870146171   -0.1614853634
O        2.2260943770   -1.5754575445   -1.9708549040
H        6.8781090554    1.3621412100    0.6076707492
H        4.7608200589    2.0383911985    1.7230273623
H        6.8334027941   -0.3321740499   -1.2151500686
H        2.6208042242    1.0226524176    1.0416119640
H        4.6582745379   -1.3409630777   -1.9177586015
H       -0.2451477248   -2.0899803937   -1.3280699078
H       -0.9445330605   -1.6804965961    0.2538387726
H        0.4410422860   -2.7817351263    0.1440563352
H        0.4621584412    0.2250609358   -0.5451828742
H        1.1674234119   -0.4939266002    0.8905404270
20   
torsion grid (-135,)
C        5.9482209901    0.8167091516    0.3339245999
C        4.7665248962    1.2068195387    0.9704988073
C        5.8989545653   -0.0875935342   -0.7354691200
C        3.5390277103    0.6880527517    0.5483923763
C        4.6744582799   -0.5950493806   -1.1638774642
C        3.4792931390   -0.2189628140   -0.5231746321
C        2.1958395007   -0.7979711347   -1.0417777499
C        0.0972988083   -1.9251516305   -0.1836003141
C        0.8921518510   -0.6143913633   -0.2687246757
O        2.1895104672   -1.4363441742   -2.0899282433
H        6.9030006836    1.2155419773    0.6671937396
H        4.7998878683    1.9135175901    1.7954536087
H        6.8165409327   -0.3914482900   -1.2325514579
H        2.6338388114    1.0095502333    1.0525714039
H        4.6144425250   -1.2889400841   -1.9964304355
H       -0.0724770739   -2.3364911626   -1.1809249504
H       -0.8712229400   -1.7546055732    0.2965578835
H        0.6407239146   -2.6726937381    0.4035169594
H        0.3077674391    0.1410821000   -0.8098252387
H        1.0679374242   -0.2205510653    0.7341149873
20   
torsion grid (-120,)
C        5.9098190762    0.7774575114    0.3991461250
C        4.7326843575    0.9773202455    1.1257859815
C        5.8752716996    0.0522576201   -0.7995671279
C        3.5217241024    0.4628979822    0.6534672215
C        4.6704092593   -0.4697989928   -1.2641478090
C        3.4767705671   -0.2668155737   -0.5466255382
C        2.2187123866   -0.8681110869   -1.0994817677
C        0.1531223262   -1.7878715100    0.0282097280
C        0.8574998879   -0.5276170589   -0.5019549858
O        2.2723829417   -1.6406545899   -2.0521382964
H        6.8500188421    1.1830860784    0.7641471858
H        4.7564497272    1.5339346862    2.0588993766
H        6.7895176623   -0.1046758297   -1.3660521947
H        2.6214646056    0.6263652413    1.2361204936
H        4.6244755926   -1.0421308381   -2.1853251253
H        0.0743468105   -2.5379135196   -0.7623784956
H       -0.8537923453   -1.5449529866    0.3815234761
H        0.7079043638   -2.2289545163    0.8633229804
H        0.2676293582   -0.1034727929   -1.3224902844
H        0.9170294824    0.2356849832    0.2753837994
20   
torsion grid (-105,)
C        5.8645777849    0.7020118433    0.4574656289
C        4.6709796488    0.8666564423    1.1664267384
C        5.8560710919    0.0492190105   -0.7825529852
C        3.4696768408    0.3904217391    0.6340206310
C        4.6604591984   -0.4373099357   -1.3067098019
C        3.4516483288   -0.2666215403   -0.6078143891
C        2.2003000995   -0.8249138114   -1.2162888156
C        0.2879137050   -1.7142636321    0.1622550675
C        0.8390476479   -0.5027817246   -0.6125715017
O        2.2620548366   -1.5540296669   -2.2018592884
H        6.7976472319    1.0790880083    0.8684735257
H        4.6752456215    1.3664635242    2.1314548111
H        6.7834628960   -0.0798798292   -1.3345106030
H        2.5540471432    0.5238755643    1.2009750093
H        4.6341338070   -0.9554473987   -2.2602689164
H        0.2429567248   -2.5909104373   -0.4893221023
H       -0.7202900051   -1.5059616380    0.5335808755
H        0.9211273408   -1.9599826407    1.0216535216
H        0.1751399929   -0.2836101131   -1.4544260484
H        0.8654470183    0.3833125714    0.0251441674
20   
torsion grid (-90,)
C        5.8200687849    0.6253179625    0.5229614372
C        4.6060926748    0.8059236839    1.1926816646
C        5.8393755879    0.0052918303   -0.7334818850
C        3.4130759934    0.3744882768    0.6067926696
C        4.6504637341   -0.4322805667   -1.3135266839
C        3.4229409044   -0.2492478375   -0.6522087693
C        2.1767580690   -0.7478663768   -1.3219187942
C        0.4552843869   -1.6723055256    0.2690187501
C        0.8211904253   -0.5081890796   -0.6725837747
O        2.2446779958   -1.3723919759   -2.3762979204
H        6.7473573148    0.9653164425    0.9771368379
H        4.5886322187    1.2833669326    2.1688324549
H        6.7824851194   -0.1355939713   -1.2551069751
H        2.4806102953    0.5224240789    1.1418869549
H        4.6438649314   -0.9207496511   -2.2829721692
H        0.4490456468   -2.6180251707   -0.2804012143
H       -0.5395180850   -1.5183422098    0.6984928413
H        1.1699447297   -1.7640466132    1.0933801693
H        0.0909579424   -0.4541287273   -1.4841903244
H        0.7934626825    0.4419720134   -0.1321378674
20   
torsion grid (-75,)
C        5.7788653381    0.5410971604    0.5647736707
C        4.5525053487    0.8046438001    1.1827281641
C        5.8093741347   -0.0915492662   -0.6849068249
C        3.3598281504    0.4346121320    0.5560874755
C        4.6191717129   -0.4565179148   -1.3112850575
C        3.3806689958   -0.1994906643   -0.6975871915
C        2.1317317613   -0.6119980959   -1.4208871672
C        0.6213828844   -1.6591874606    0.3229052147
C        0.7905687922   -0.5252255166   -0.7071111113
O        2.1940383244   -1.0569015658   -2.5628403698
H        6.7066684452    0.8276337982    1.0534649249
H        4.5255144534    1.2981298232    2.1506603772
H        6.7618601360   -0.2967369042   -1.1666406847
H        2.4174102906    0.6502555762    1.0491839448
H        4.6206387879   -0.9438509828   -2.2813268197
H        0.7059402432   -2.6355374332   -0.1640938419
H       -0.3648741799   -1.5999927718    0.7936791371
H        1.3777599442   -1.6102571745    1.1114079668
H        0.0187348048   -0.6016689483   -1.4764174944
H        0.6765490847    0.4463868700   -0.2144124668
20   
torsion grid (-60,)
C        5.7383081330    0.4634856282    0.5980875299
C        4.5120402840    0.8035131706    1.1783634734
C        5.7705513396   -0.1841188707   -0.6435937643
C        3.3191862081    0.4846827845    0.5249889744
C        4.5794969532   -0.4872008901   -1.3016864020
C        3.3415355314   -0.1641748378   -0.7207503046
C        2.0906420452   -0.4992359198   -1.4789988896
C        0.7492583034   -1.6460089213    0.3786999400
C        0.7643082726   -0.5824789929   -0.7347125818
O        2.1450448756   -0.7519150482   -2.6782927029
H        6.6664474158    0.7046316303    1.1099994135
H        4.4856191167    1.3151991538    2.1368485768
H        6.7235559134   -0.4461449514   -1.0958718742
H        2.3746370924    0.7622651564    0.9828250273
H        4.5824790467   -0.9754338822   -2.2713563008
H        0.9690841525   -2.6375512224   -0.0302508545
H       -0.2405445181   -1.6880424620    0.8439718112
H        1.4835818818   -1.4387005263    1.1603566630
H       -0.0001112701   -0.8003397108   -1.4838677168
H        0.5296726425    0.4002885287   -0.3055269398
20   
torsion grid (-45,)
C        5.7275806367    0.3832268076    0.6156613145
C        4.5119571555    0.7807196507    1.1823036475
C        5.7416567187   -0.2575306885   -0.6295225824
C        3.3124676578    0.5189624132    0.5160582305
C        4.5455086259   -0.4958266374   -1.3062755432
C        3.3191103400   -0.1231296467   -0.7328657110
C        2.0612459865   -0.3765840249   -1.5094866673
C        0.8363194536   -1.6160557290    0.4108679823
C        0.7513085317   -0.6364625140   -0.7716489712
O        2.0981874507   -0.4278339488   -2.7343020783
H        6.6603480610    0.5761686605    1.1394440930
H        4.4992667346    1.2927792277    2.1408713449
H        6.6859313238   -0.5626001811   -1.0729663381
H        2.3753008235    0.8428876223    0.9596081921
H        4.5395458941   -0.9700265907   -2.2830360251
H        1.2458514963   -2.5803760061    0.0919915260
H       -0.1646475148   -1.7974783360    0.8150685594
H        1.4652923532   -1.2437975849    1.2212040570
H        0.0452704595   -0.9916162324   -1.5258322634
H        0.3686139070    0.3302100245   -0.4139947053
20   
torsion grid (-30,)
C        5.7115473186    0.3208097788    0.6279069038
C        4.5113270854    0.7351535717    1.2148226931
C        5.6983306574   -0.2900690385   -0.6320113504
C        3.2989960232    0.5151351655    0.5564466651
C        4.4903000173   -0.4819100652   -1.3030122820
C        3.2787598527   -0.0977833812   -0.7062426521
C        2.0098821414   -0.2965451198   -1.4808198519
C        0.8465405061   -1.5731004092    0.4912330670
C        0.7195014147   -0.7141300226   -0.7754016896
O        2.0200497682   -0.1813482152   -2.7013748466
H        6.6536207634    0.4792956917    1.1465115721
H        4.5200908368    1.2283885796    2.1832671815
H        6.6305910982   -0.6063610251   -1.0926886881
H        2.3744361268    0.8552223198    1.0138205876
H        4.4662498126   -0.9283476569   -2.2926078248
H        1.4729313490   -2.4533145039    0.3126191422
H       -0.1436404125   -1.9264654981    0.7965461928
H        1.2793045291   -1.0294839525    1.3322568161
H        0.1267343383   -1.2255555130   -1.5382399450
H        0.1701720666    0.2088337960   -0.5397314916
20   
torsion grid (-15,)
C        5.7489375621    0.2735685998    0.6058761082
C        4.5556036072    0.6467248953    1.2323776761
C        5.7187636077   -0.2711632354   -0.6837622728
C        3.3334880425    0.4508389014    0.5839831157
C        4.5009832955   -0.4377960537   -1.3432459640
C        3.2952967305   -0.0960304923   -0.7079449676
C        2.0219578225   -0.2679479970   -1.4826983993
C        0.8032629227   -1.4576316981    0.5471170116
C        0.7354295958   -0.7823912157   -0.8288322258
O        2.0204587798   -0.0578759052   -2.6906125199
H        6.6982957927    0.4127873822    1.1166716449
H        4.5762830642    1.0895668019    2.2247105045
H        6.6451478584   -0.5551550917   -1.1762442986
H        2.4165746192    0.7592844070    1.0752530716
H        4.4645695056   -0.8318704650   -2.3544142678
H        1.6132591704   -2.1919214462    0.5971637346
H       -0.1364502595   -1.9846742399    0.7416712040
H        0.9508019954   -0.7473349453    1.3628058936
H        0.3153976189   -1.4692225312   -1.5699939644
H        0.0385813050    0.0657514221   -0.7988162995
20   
torsion grid (0,)
C        5.7779521369    0.2453666825    0.5711866053
C        4.5911660674    0.5325032326    1.2522324474
C        5.7287701477   -0.2112664501   -0.7517304182
C        3.3575668174    0.3397152273    0.6244155302
C        4.4989242723   -0.3748464663   -1.3882441142
C        3.2991434996   -0.1179038047   -0.7013936373
C        2.0184414769   -0.2833266699   -1.4668638666
C        0.7031163525   -1.3283002268    0.6127005045
C        0.7426495203   -0.8695250061   -0.8493566444
O        2.0006448557   -0.0155743415   -2.6636402939
H        6.7362706448    0.3823478178    1.0656248722
H        4.6248073602    0.9057788998    2.2724434478
H        6.6492931787   -0.4292547102   -1.2869817210
H        2.4484080734    0.5802776422    1.1629383652
H        4.4468863189   -0.7007262072   -2.4226047840
H        1.5725756877   -1.9378711033    0.8753038805
H       -0.1916942118   -1.9374772896    0.7769527028
H        0.6529928459   -0.4917146553    1.3141332692
H        0.5136976874   -1.7181986203   -1.5042333929
H       -0.0538166450   -0.1422586567   -1.0450006243
20   
torsion grid (15,)
C        5.3803268831    1.3388677846   -0.5121593428
C        4.2268341353    1.5959222454    0.2356213179
C        5.6076414947    0.0556885088   -1.0245902699
C        3.2894742360    0.5816452954    0.4476304735
C        4.6869041998   -0.9647021313   -0.7864295893
C        3.5097143568   -0.7064261602   -0.0642100188
C        2.5757367095   -1.8535871703    0.1865750203
C        0.4510265900   -0.4394758210   -0.5252192511
C        1.0534730425   -1.6908355017    0.1266639048
O        3.0370592941   -2.9732429672    0.3782682584
H        6.1021163119    2.1321567647   -0.6890404768
H        4.0570528079    2.5849205429    0.6531365810
H        6.5068896756   -0.1490620394   -1.5997486888
H        2.4067006487    0.7907112362    1.0427893145
H        4.8640631466   -1.9714075555   -1.1528183061
H        0.5358878712    0.4498226060    0.1021388748
H       -0.6149895876   -0.6033720840   -0.7134597508
H        0.9276625682   -0.2145149949   -1.4843821247
H        0.6867705606   -1.7932534857    1.1566534756
H        0.7086414865   -2.5924445009   -0.3887734103
20   
torsion grid (30,)
C        5.3544638867    1.3528382482   -0.4551597392
C        4.2206849056    1.5745689289    0.3335486935
C        5.5665165301    0.0962321247   -1.0354328834
C        3.2878141753    0.5514468983    0.5195271247
C        4.6504147588   -0.9345802744   -0.8243251970
C        3.4938854440   -0.7101775398   -0.0603877718
C        2.5554407472   -1.8585296431    0.1635221665
C        0.4720080007   -0.4905457822   -0.6488115733
C        1.0429921163   -1.6383585535    0.1966680860
O        3.0017335084   -2.9962102371    0.2616766332
H        6.0731817222    2.1532105245   -0.6114293521
H        4.0638268953    2.5424591783    0.8024052005
H        6.4504747440   -0.0799566657   -1.6428448120
H        2.4192255430    0.7293622298    1.1468718783
H        4.8151871064   -1.9224236056   -1.2440867909
H        0.7507497259    0.4946592249   -0.2722499749
H       -0.6212486533   -0.5478291253   -0.6558804389
H        0.8147412791   -0.5537568520   -1.6868789072
H        0.7635056748   -1.4928139550    1.2501718102
H        0.6059559981   -2.5964217439   -0.0965306917
20   
torsion grid (45,)
C        5.3919461224    1.3526450826   -0.4016059312
C        4.2459624257    1.5487419642    0.3762846747
C        5.6141407963    0.1154705421   -1.0190707240
C        3.3140707314    0.5179883038    0.5187046193
C        4.6959663119   -0.9217353019   -0.8555933841
C        3.5304167588   -0.7252100514   -0.0975651856
C        2.5854307914   -1.8776427937    0.0712557223
C        0.4759939857   -0.5739300981   -0.6866540199
C        1.0940376402   -1.6166787823    0.2598694190
O        3.0050884972   -3.0280506606    0.0034528496
H        6.1114071979    2.1585217174   -0.5222953883
H        4.0792274868    2.5025355888    0.8699397064
H        6.5065422708   -0.0395554568   -1.6198660590
H        2.4337965063    0.6772733008    1.1348997202
H        4.8639001548   -1.8946606777   -1.3074521688
H        0.8856364942    0.4262193391   -0.5358889877
H       -0.6059794407   -0.5241733535   -0.5282648671
H        0.6464998468   -0.8456427835   -1.7337525408
H        0.9364356067   -1.2991759007    1.3006153050
H        0.6018786189   -2.5859381560    0.1515427533
20   
torsion grid (60,)
C        5.4328527167    1.3487043052   -0.3303293170
C        4.2554176688    1.5468370321    0.3980025466
C        5.6658200363    0.1194178813   -0.9601762427
C        3.3073824606    0.5245619972    0.4855718287
C        4.7266870176   -0.9060138174   -0.8590065083
C        3.5337631062   -0.7113769252   -0.1425936206
C        2.5636128891   -1.8527052012   -0.0519627785
C        0.4009904981   -0.6361486960   -0.6881243917
C        1.1103107337   -1.5723069080    0.3076917932
O        2.9278184378   -2.9944072140   -0.3145089451
H        6.1670057889    2.1469395894   -0.4048033046
H        4.0765820611    2.4959705899    0.8963368754
H        6.5815036465   -0.0367543154   -1.5245456696
H        2.4019370007    0.6903293461    1.0613906819
H        4.8958366133   -1.8706912255   -1.3274616556
H        0.8615699380    0.3535877032   -0.7266508475
H       -0.6488041913   -0.5123529370   -0.4042996337
H        0.4269719561   -1.0552001552   -1.6992910233
H        1.0652886277   -1.1371175812    1.3144826320
H        0.6071685389   -2.5408457223    0.3498031018
20   
torsion grid (75,)
C        5.4982218876    1.3387235627   -0.2780285213
C        4.2839994349    1.5663995176    0.3770475259
C        5.7397495482    0.1021921047   -0.8908324323
C        3.3121272170    0.5634552310    0.4175352712
C        4.7717058216   -0.8993309866   -0.8464262938
C        3.5461167693   -0.6799973622   -0.1934605630
C        2.5429235683   -1.7963604809   -0.1749222629
C        0.2955622525   -0.7317602969   -0.6595540188
C        1.1395753236   -1.5324244991    0.3512792681
O        2.8360992157   -2.9016931600   -0.6200712605
H        6.2533648533    2.1200293671   -0.3106618056
H        4.0950233048    2.5234622562    0.8560710459
H        6.6831681932   -0.0764154965   -1.4002010479
H        2.3770537971    0.7571154419    0.9332232682
H        4.9405922310   -1.8657482183   -1.3111907475
H        0.7276504209    0.2522066313   -0.8630073103
H       -0.7185407728   -0.5847883223   -0.2750505130
H        0.2226433156   -1.2699252599   -1.6096208442
H        1.1785855955   -1.0012362561    1.3084104505
H        0.6817687882   -2.5080900498    0.5299496509
20   
torsion grid (90,)
C        5.5805402871    1.3190551464   -0.2042059402
C        4.3347401844    1.5903976089    0.3695631081
C        5.8171480231    0.0749104001   -0.8038553684
C        3.3293619472    0.6200511517    0.3507192610
C        4.8117909953   -0.8894557778   -0.8299188171
C        3.5574817019   -0.6297415030   -0.2494484327
C        2.5114092556   -1.7028852055   -0.3149899672
C        0.1655954828   -0.8341961830   -0.6158910251
C        1.1638310130   -1.4886514471    0.3592942549
O        2.7242440547   -2.7417751083   -0.9328407313
H        6.3637519709    2.0726949842   -0.1851705416
H        4.1472266472    2.5557201211    0.8322770371
H        6.7852079425   -0.1373730545   -1.2501478702
H        2.3686184001    0.8490891241    0.8004135204
H        4.9721940961   -1.8571292603   -1.2950602249
H        0.5030578705    0.1580353503   -0.9325888323
H       -0.8147712412   -0.7234979621   -0.1421766183
H        0.0466604546   -1.4527211400   -1.5100792770
H        1.2569341393   -0.8887564860    1.2687449566
H        0.7964603920   -2.4775803536    0.6455025276
20   
torsion grid (105,)
C        5.6646846390    1.2906089503   -0.1481824781
C        4.4203141033    1.6007130031    0.4083668315
C        5.8613275097    0.0534669594   -0.7764139739
C        3.3764088917    0.6733335976    0.3474954817
C        4.8159375327   -0.8646309371   -0.8478760383
C        3.5626039151   -0.5692013493   -0.2813920721
C        2.4740157048   -1.5929562865   -0.4043500961
C        0.0395784230   -0.9819021528   -0.6147529289
C        1.1607792375   -1.4165414899    0.3474586245
O        2.6277516119   -2.5786765270   -1.1195894857
H        6.4784080775    2.0093927477   -0.0942670145
H        4.2633724988    2.5620777249    0.8903088220
H        6.8282649861   -0.1885041728   -1.2098992125
H        2.4165667398    0.9337156993    0.7816055569
H        4.9436913785   -1.8240775079   -1.3393018105
H        0.2509843431   -0.0020347075   -1.0563972070
H       -0.9160004973   -0.9151905334   -0.0854471915
H       -0.0637002042   -1.7062165506   -1.4270095888
H        1.2478579617   -0.7143983524    1.1793145160
H        0.9137745928   -2.3963935361    0.7673868139
20   
torsion grid (120,)
C        5.7483994101    1.2452654008   -0.0907274487
C        4.5222731266    1.5845288907    0.4879851307
C        5.8857826143    0.0275657458   -0.7708335727
C        3.4375365644    0.7073809176    0.3968504908
C        4.8017280186   -0.8410681735   -0.8713710884
C        3.5647118766   -0.5150859785   -0.2843208828
C        2.4375379956   -1.4919284193   -0.4431045584
C       -0.0617850272   -1.1678224645   -0.6244119529
C        1.1343748557   -1.3202418210    0.3302528826
O        2.5573304444   -2.4530498360   -1.1975752679
H        6.5930470758    1.9252827712   -0.0140017750
H        4.4099989895    2.5305452085    1.0109813137
H        6.8383303282   -0.2381581247   -1.2218574056
H        2.4943186786    0.9936529773    0.8496606567
H        4.8850886960   -1.7843362464   -1.4019637002
H        0.0217807435   -0.2519765504   -1.2193482008
H       -0.9988413429   -1.1210932962   -0.0609824770
H       -0.1088953988   -2.0166328074   -1.3108187730
H        1.1698681207   -0.4902228889    1.0375503436
H        1.0118740621   -2.2366779582    0.9186975284
20   
torsion grid (135,)
C        5.8179025028    1.1965619412   -0.0680310117
C        4.6763090137    1.4695137480    0.6909277874
C        5.8432401850    0.0789363009   -0.9130853448
C        3.5581781891    0.6354974059    0.5996936145
C        4.7333150627   -0.7587660568   -0.9948011278
C        3.5740362807   -0.4877333165   -0.2444008441
C        2.4189025756   -1.4364126498   -0.3754480402
C       -0.0858227115   -1.3940644656   -0.7437277083
C        1.0606772240   -1.0961002724    0.2329994353
O        2.5575249329   -2.4918271429   -0.9862411996
H        6.6845302319    1.8494382040   -0.0013385590
H        4.6553873312    2.3312693319    1.3527607449
H        6.7302932919   -0.1357167299   -1.5033806397
H        2.6853207319    0.8627657568    1.2025052416
H        4.7366765127   -1.6345079108   -1.6361196841
H       -0.0268243632   -0.7447556192   -1.6233728687
H       -1.0532514654   -1.2247854119   -0.2609168988
H       -0.0398053395   -2.4305141259   -1.0847737687
H        1.0112975447   -0.0550480880    0.5576890568
H        0.9537486023   -1.7158099831    1.1327540283
20   
torsion grid (150,)
C        5.8445073369    1.1730638166    0.0294052346
C        4.6951480029    1.4353361922    0.7811392459
C        5.8616921869    0.0982845755   -0.8693444085
C        3.5611360516    0.6330365149    0.6282724965
C        4.7350361057   -0.7092084469   -1.0121163353
C        3.5692840259   -0.4470075155   -0.2703829901
C        2.3914586411   -1.3569208768   -0.4616670049
C       -0.1372954507   -1.5203851249   -0.6616459781
C        1.0445311595   -0.9873232717    0.1539594951
O        2.5074755533   -2.3861410610   -1.1187920792
H        6.7238856649    1.8018616061    0.1435826263
H        4.6815120640    2.2639169847    1.4842785330
H        6.7549806311   -0.1072845358   -1.4534489756
H        2.6800168998    0.8485644079    1.2240761663
H        4.7311664021   -1.5526977173   -1.6954219070
H       -0.1551709140   -1.0687616442   -1.6583878157
H       -1.0823703146   -1.2850232149   -0.1623567542
H       -0.0673101082   -2.6027020190   -0.7889777839
H        0.9619346192    0.0969839955    0.2682242804
H        1.0289962893   -1.4056436779    1.1701028637
20   
torsion grid (165,)
C        5.8888943509    1.1415941717    0.1170094159
C        4.7207671756    1.4084557362    0.8379709628
C        5.9079227749    0.1027615311   -0.8227959225
C        3.5721491554    0.6442335131    0.6163846839
C        4.7644367523   -0.6645945270   -1.0376978253
C        3.5826720347   -0.3995826010   -0.3239861015
C        2.3826545822   -1.2602156677   -0.5923657960
C       -0.1385386361   -1.6183994073   -0.5632152332
C        1.0554687761   -0.9005337164    0.0665520301
O        2.4690510435   -2.2300038853   -1.3377510778
H        6.7808534015    1.7394259555    0.2865712777
H        4.7047518602    2.2108999212    1.5707677485
H        6.8154239401   -0.1059292759   -1.3834045875
H        2.6748923318    0.8630754895    1.1865553113
H        4.7600406179   -1.4780283786   -1.7565940518
H       -0.2384366677   -1.3534534220   -1.6197134231
H       -1.0638690781   -1.3411591431   -0.0484762309
H       -0.0194425952   -2.7029366285   -0.5084282571
H        0.9141386614    0.1850847091    0.0218638561
H        1.1382025744   -1.1461473130    1.1345704079
20   
torsion grid (180,)
C        5.9180055640    1.0760931298    0.1911616532
C        4.7299451246    1.3751461369    0.8654742074
C        5.9371015058    0.0624687559   -0.7757205242
C        3.5631207360    0.6634566320    0.5750172609
C        4.7727712458   -0.6469630462   -1.0650574566
C        3.5732219034   -0.3545687289   -0.3932173717
C        2.3493505922   -1.1498698683   -0.7441414349
C       -0.1179663376   -1.7241005390   -0.4717651137
C        1.0448554763   -0.8426721413   -0.0185682357
O        2.4025396648   -2.0283168603   -1.5978128844
H        6.8255143600    1.6300773376    0.4175849239
H        4.7129675480    2.1611400175    1.6158820107
H        6.8600548255   -0.1707272370   -1.3002941791
H        2.6496098216    0.9081237475    1.1075736916
H        4.7656382280   -1.4359974309   -1.8106363538
H       -0.3107130829   -1.5998366010   -1.5405298112
H       -1.0281297140   -1.4653761113    0.0785193569
H        0.1022736827   -2.7812386417   -0.3021291300
H        0.8087249682    0.2185047424   -0.1707314652
H        1.2176203525   -0.9534586819    1.0598322338
