9    
torsion grid (-165,)
C       -0.4905051602   -0.3936358048   -1.2409745190
C       -0.4110402627    0.3728480763   -0.1434781523
C        0.5415266598   -0.0098328778    0.9924232828
Cl      -1.3765517753    0.0051888684   -2.6630705370
Cl      -1.1524034939    1.9376371623   -0.0800126874
Cl       2.2389177680    0.4121301229    0.4829691805
Cl       0.2015451470    0.8687605120    2.5160825620
Cl       0.4673814086   -1.7836928080    1.3221484361
H        0.0104812870   -1.3524063810   -1.2884278460
9    
torsion grid (-150,)
C       -0.5693841885   -0.4317143056   -1.2110697538
C       -0.3654493678    0.3848205193   -0.1669420081
C        0.5619702753    0.0036380157    0.9801147698
Cl      -1.4508695008   -0.0097064181   -2.6303957172
Cl      -0.9163917803    2.0297862987   -0.1850941067
Cl       2.2268858991    0.6250263596    0.5923679982
Cl       0.0443210904    0.7410235155    2.5361460819
Cl       0.6545359568   -1.7820513605    1.2011910309
H       -0.1898065790   -1.4446133843   -1.2148414046
9    
torsion grid (-135,)
C       -0.6233775976   -0.4541479451   -1.1879057104
C       -0.2921643529    0.3997748767   -0.2090904568
C        0.5899220010    0.0107775885    0.9654890814
Cl      -1.5306370283   -0.0297830791   -2.5913203418
Cl      -0.7157895515    2.0812464433   -0.2875674404
Cl       2.2276585082    0.7535722709    0.7341738668
Cl      -0.1017547303    0.6192087139    2.5152001672
Cl       0.7932307925   -1.7743911376    1.1058523042
H       -0.3389126486   -1.4963209145   -1.1487231191
9    
torsion grid (-120,)
C       -0.6699172948   -0.4652461045   -1.1585957439
C       -0.2135769287    0.4159035709   -0.2577971884
C        0.6195466831    0.0243573455    0.9495792251
Cl      -1.6180989949   -0.0497644613   -2.5378419259
Cl      -0.5428819498    2.1149662120   -0.3953528296
Cl       2.2201043175    0.8607296241    0.8839580110
Cl      -0.2374358523    0.5097239882    2.4651052676
Cl       0.9226713151   -1.7516616278    1.0264664898
H       -0.4639320481   -1.5225944387   -1.0710874586
9    
torsion grid (-105,)
C       -0.7138700779   -0.4655359463   -1.1263544305
C       -0.1361780121    0.4268142306   -0.3098277194
C        0.6456565800    0.0326068788    0.9319546113
Cl      -1.6979391492   -0.0567551020   -2.4818625409
Cl      -0.3735612756    2.1345459203   -0.5148880114
Cl       2.1928763450    0.9482475056    1.0357107314
Cl      -0.3602810453    0.3844315605    2.3959106066
Cl       1.0480378636   -1.7283377935    0.9449016488
H       -0.5844645766   -1.5291660800   -0.9835144868
9    
torsion grid (-90,)
C       -0.7641399753   -0.4596680855   -1.0808248360
C       -0.0735511333    0.4315183213   -0.3549428094
C        0.6685871293    0.0386430197    0.9161528149
Cl      -1.7740881958   -0.0630380126   -2.4196978624
Cl      -0.2077447872    2.1366566064   -0.6513284000
Cl       2.1340107395    1.0393649871    1.1803351749
Cl      -0.4563728231    0.2256908247    2.3257043931
Cl       1.1932498195   -1.6938720558    0.8545650689
H       -0.7118698580   -1.5189308400   -0.8685843299
9    
torsion grid (-75,)
C       -0.8218998792   -0.4357876181   -1.0268166644
C       -0.0327080830    0.4418988738   -0.3904142660
C        0.6770074703    0.0455743998    0.9065089143
Cl      -1.8123773067   -0.0681190874   -2.3871213404
Cl       0.0007393424    2.1154941930   -0.8409812132
Cl       2.0210120954    1.1430060188    1.3368015266
Cl      -0.5345266912    0.0239918490    2.2585454098
Cl       1.3599329328   -1.6301251258    0.7536516930
H       -0.8696782102   -1.4712552589   -0.7141235214
9    
torsion grid (-60,)
C       -0.9107514196   -0.3866578194   -0.9557962997
C       -0.0375578241    0.4618653923   -0.3957354453
C        0.6760594080    0.0477600479    0.9012592422
Cl      -1.8059028534   -0.0840159451   -2.3956223823
Cl       0.2905028822    2.0142679155   -1.0857421242
Cl       1.8241048726    1.2769287055    1.5042783982
Cl      -0.5570802907   -0.2595456638    2.1984861755
Cl       1.5964857822   -1.4926436729    0.6206412878
H       -1.1069908516   -1.3545476647   -0.5094715471
9    
torsion grid (-45,)
C       -0.4153541061    0.6751863412   -1.1351985697
C       -0.3402387281   -0.3694514480   -0.2976519308
C        0.5271250686   -0.2783449958    0.9611694535
Cl      -1.4771562800    0.7856752894   -2.4868903100
Cl      -1.4098509653   -1.7241011062   -0.4479145049
Cl       0.8527070246   -1.8875338820    1.6893985264
Cl       2.1353655849    0.4536998278    0.5615336554
Cl      -0.3096440273    0.7496151802    2.1943070373
H        0.2283645618    1.5368852669   -1.0092329660
9    
torsion grid (-30,)
C       -0.3559334064    0.6385413008   -1.1919920116
C       -0.3711815970   -0.3310811766   -0.2656296752
C        0.5062455619   -0.2652151659    0.9782355745
Cl      -1.4404321520    0.7391013267   -2.5273784242
Cl      -1.5906846640   -1.5656608793   -0.2708105243
Cl       0.9828752693   -1.9128247394    1.5346706705
Cl       2.0371866080    0.6387628643    0.6549269831
Cl      -0.4068008213    0.5556796107    2.3049976645
H        0.3781576587    1.4325157293   -1.1616111859
9    
torsion grid (-15,)
C       -0.3136353406    0.6071798145   -1.2326324328
C       -0.4054299080   -0.2759945940   -0.2283877981
C        0.5124958130   -0.2520213530    0.9822419124
Cl      -1.3993464830    0.6845622901   -2.5697806493
Cl      -1.7016371929   -1.4279346667   -0.1461281461
Cl       1.1032531208   -1.9158775062    1.3603445498
Cl       1.9655158927    0.7827088176    0.7110506773
Cl      -0.3984051836    0.3863327288    2.4075361353
H        0.4797012847    1.3405708410   -1.2692909318
9    
torsion grid (0,)
C       -0.2827839002    0.5749458169   -1.2619198833
C       -0.4564087211   -0.2043128231   -0.1854830445
C        0.5014432202   -0.2320801072    0.9921642092
Cl      -1.3534473016    0.6270013941   -2.6128271361
Cl      -1.8187515528   -1.2708156748   -0.0412087191
Cl       1.1677047690   -1.8996377104    1.1971617846
Cl       1.8895481781    0.8983641618    0.7734018703
Cl      -0.3723031967    0.2431168005    2.5007815693
H        0.5659592310    1.2382537825   -1.3498518569
9    
torsion grid (15,)
C       -0.2538578412    0.5277740718   -1.2849825003
C       -0.5014552029   -0.1387109718   -0.1485736588
C        0.4885479968   -0.2110869691    1.0018380028
Cl      -1.2996747198    0.5472267444   -2.6556077325
Cl      -1.9184486758   -1.1243648310    0.0371872862
Cl       1.2397505354   -1.8551208682    1.0383848677
Cl       1.7970186310    1.0217896477    0.8489111608
Cl      -0.3471724788    0.0876061086    2.5744022632
H        0.6415118096    1.1207634891   -1.4085338269
9    
torsion grid (30,)
C       -0.2238281893    0.4682094450   -1.3025632210
C       -0.5404341795   -0.0777644287   -0.1192515806
C        0.4773607254   -0.1922400220    1.0087554791
Cl      -1.2476767535    0.4718895462   -2.6886422261
Cl      -2.0246468522   -0.9485008868    0.1051619796
Cl       1.3280257009   -1.7821247506    0.8805582574
Cl       1.6906606991    1.1450054528    0.9368318295
Cl      -0.3169043602   -0.0874065180    2.6241633825
H        0.7213320390    0.9723399064   -1.4533414993
9    
torsion grid (45,)
C       -0.2011543149    0.3838798952   -1.3163686614
C       -0.5765206234   -0.0394343291   -0.1005062069
C        0.4651266032   -0.1846649113    1.0126468613
Cl      -1.2176783945    0.4287392609   -2.7060814993
Cl      -2.1570248464   -0.6919635549    0.1788551299
Cl       1.4576384251   -1.6693896369    0.7172001223
Cl       1.5503477744    1.2655978577    1.0473501052
Cl      -0.2826656942   -0.3157255456    2.6405095951
H        0.8021482063    0.7515183070   -1.4924658895
9    
torsion grid (60,)
C       -0.1689888715    0.2505876532   -1.3415901580
C       -0.5769501379   -0.0425423923   -0.0991049535
C        0.4687027242   -0.1480449548    1.0226825226
Cl      -1.1991099084    0.4197347164   -2.7113447161
Cl      -2.2487811611   -0.2860673010    0.2742094198
Cl       1.6918714641   -1.4199263066    0.5926231960
Cl       1.3379160731    1.4375789741    1.1904108896
Cl      -0.2330619748   -0.5690786822    2.6110001802
H        0.8819045681    0.4027798604   -1.5583550429
9    
torsion grid (75,)
C       -0.1588931199    0.1303507728   -1.3697636563
C       -0.5568560553   -0.0488197644   -0.1018170365
C        0.4732885153   -0.1469271889    1.0259919906
Cl      -1.2087572690    0.4328672080   -2.7012746022
Cl      -2.2242653460    0.0985768186    0.3488239513
Cl       1.8674031149   -1.1874413749    0.5049235048
Cl       1.1253841143    1.5112471407    1.3745659609
Cl      -0.1942526677   -0.8459648673    2.5298484923
H        0.8887863800    0.0780499208   -1.6378783824
9    
torsion grid (90,)
C       -0.1632371949    0.0504122434   -1.3901158378
C       -0.5316877577    0.0001929189   -0.1018020892
C        0.4837843679   -0.1368451799    1.0255152740
Cl      -1.2280212569    0.3861594617   -2.7028996871
Cl      -2.1552785496    0.3697051656    0.3888508818
Cl       1.9662162847   -1.0126861109    0.4634252153
Cl       0.9893176470    1.5218049031    1.5553070256
Cl      -0.1795827059   -1.0389466819    2.4272566660
H        0.8582872804   -0.1394947366   -1.6905145299
9    
torsion grid (105,)
C       -0.1761900083   -0.0109934860   -1.4010568127
C       -0.5048652422    0.0778632792   -0.1046407997
C        0.4963878345   -0.1139360812    1.0221078007
Cl      -1.2562968856    0.3052721555   -2.7073014974
Cl      -2.0863360789    0.5864304735    0.4004567007
Cl       2.0324929096   -0.8646771974    0.4381435946
Cl       0.9010520188    1.5025357589    1.7297953320
Cl      -0.1782870436   -1.1783839116    2.3085275508
H        0.8158580831   -0.3050325873   -1.7138364798
9    
torsion grid (120,)
C       -0.1930350097   -0.0645017277   -1.4019909431
C       -0.4722407641    0.1652256243   -0.1115202228
C        0.5130396894   -0.0846485353    1.0162778894
Cl      -1.2912948846    0.2106071462   -2.7028565584
Cl      -2.0149938337    0.7816117342    0.3927115480
Cl       2.0901432891   -0.7245420177    0.4191402133
Cl       0.8360204414    1.4597875831    1.8974570306
Cl      -0.1757628899   -1.2903736659    2.1725302241
H        0.7680176252   -0.4481646525   -1.7138324930
9    
torsion grid (135,)
C       -0.2144099692   -0.1088581369   -1.3915613757
C       -0.4384565236    0.2598345668   -0.1223747551
C        0.5237344065   -0.0506573649    1.0119972480
Cl      -1.3245195778    0.1268684963   -2.6895849641
Cl      -1.9376794046    0.9886379554    0.3615462533
Cl       2.1365255547   -0.5872225528    0.4127262711
Cl       0.7683774620    1.3965989022    2.0587551116
Cl      -0.1791172158   -1.3813507512    2.0231966450
H        0.7107083844   -0.5836360579   -1.6870632148
9    
torsion grid (150,)
C       -0.2465033657   -0.1600332968   -1.3705692419
C       -0.4155525132    0.3347914794   -0.1356223745
C        0.5238196655   -0.0255763310    1.0083580122
Cl      -1.3573914386    0.0456311566   -2.6717780198
Cl      -1.8620440852    1.1848322719    0.3063149942
Cl       2.1782057899   -0.4243551108    0.4158317732
Cl       0.6579769842    1.3034552167    2.2117866299
Cl      -0.1527481979   -1.4843157765    1.8579622804
H        0.6376615385   -0.7251262560   -1.6332463711
9    
torsion grid (165,)
C       -0.2891198323   -0.2152877158   -1.3441238131
C       -0.4013997353    0.3808059145   -0.1481416916
C        0.5212210827   -0.0287342540    1.0030051228
Cl      -1.3673474089    0.0134580035   -2.6676031379
Cl      -1.7418862729    1.4140920017    0.2228444905
Cl       2.2196314226   -0.2302963299    0.4237338899
Cl       0.5150005218    1.1455230942    2.3558261152
Cl      -0.0578217425   -1.6259909818    1.6604503259
H        0.5290642372   -0.8926565088   -1.5544243440
9    
torsion grid (180,)
C       -0.3965325728   -0.3111802899   -1.2846121588
C       -0.4157348501    0.4010242648   -0.1495207630
C        0.5403331631    0.0121064288    0.9897582093
Cl      -1.3937791077   -0.0184693916   -2.6578757146
Cl      -1.4877361733    1.7423491668    0.0628955234
Cl       2.2553618199    0.1074175702    0.4000884354
Cl       0.3907853555    1.0580187375    2.4309519723
Cl       0.2107504605   -1.6994347581    1.4990845658
H        0.2810564422   -1.1488355418   -1.4017996314
