21   
torsion grid (-165,)
C       -0.4624709218    0.0916567903    0.6163992717
C       -1.1194850574   -2.2937839422    0.9891471401
C       -0.7035151537    1.5395624207   -1.4253239199
C        1.3874557674    0.2716250866   -1.0067844833
C       -0.6768873360   -0.8927043692   -1.6970860166
N       -0.8379519907   -0.8951348162    1.2649050048
N       -0.1229700230    0.2448168772   -0.8830171853
O       -0.2151566025    1.3067081772    1.1541055728
H       -0.2305745610   -2.8180734620    0.6236441455
H       -1.9306307137   -2.4195642504    0.2671216631
H       -1.4240158566   -2.7649738805    1.9239544980
H       -0.4811369140    1.5798615450   -2.4918680510
H       -1.7814657430    1.5311958473   -1.2641997944
H       -0.2545940055    2.3819070135   -0.9077993221
H        1.6428792307    0.3805312532   -2.0614972753
H        1.7698551894    1.1131549631   -0.4323777631
H        1.7856245171   -0.6655252332   -0.6176064931
H       -0.4424240469   -0.7002243643   -2.7439437242
H       -0.2143928185   -1.8263084302   -1.3902289888
H       -1.7568204038   -0.9353963961   -1.5640230397
H       -0.3774439552    1.2365077281    2.1152890793
21   
torsion grid (-150,)
C       -0.5880704824    0.1277743443    0.6039436172
C       -0.8708492493   -2.3127838179    0.9876600844
C       -0.5665790328    1.6075484468   -1.4536778785
C        1.3280055717    0.1031353927   -0.9347158859
C       -0.8396597939   -0.8105565554   -1.7159936466
N       -0.8480305957   -0.8876601749    1.2679804335
N       -0.1774671050    0.2561390989   -0.8796168613
O       -0.5482775291    1.3776764294    1.1096340789
H        0.0306851703   -2.6607772740    0.4718296149
H       -1.7496928515   -2.5823344397    0.3942499370
H       -0.9382113486   -2.8411852806    1.9391824387
H       -0.2813211766    1.6079606762   -2.5057838722
H       -1.6436560287    1.7347727830   -1.3522082794
H       -0.0462668400    2.3945717027   -0.9165281419
H        1.6470483309    0.1936261219   -1.9738424002
H        1.7782732943    0.8894918652   -0.3299775535
H        1.5983303677   -0.8765244436   -0.5420590643
H       -0.6051304854   -0.6111027724   -2.7613426813
H       -0.4586985144   -1.7889336743   -1.4427624701
H       -1.9173134269   -0.7635271889   -1.5611104643
H       -0.7492396736    1.3085273187    2.0639493133
21   
torsion grid (-135,)
C       -0.6810004239    0.1342323294    0.5857757304
C       -0.6608738524   -2.3100005052    1.0099312497
C       -0.4441939201    1.6485485702   -1.4481392587
C        1.2762011030   -0.0280160880   -0.9051358450
C       -0.9616984086   -0.7262291966   -1.7429599083
N       -0.8368862323   -0.8930468445    1.2656775464
N       -0.2098295070    0.2604639086   -0.8797905579
O       -0.8638326382    1.3873164312    1.0460698215
H        0.1587940504   -2.5543100652    0.3259562774
H       -1.5914161368   -2.7286523472    0.6131525112
H       -0.4631582546   -2.8017257184    1.9637240940
H       -0.1077332632    1.6326568935   -2.4850214612
H       -1.5064159669    1.8796873855   -1.3960798127
H        0.1227481033    2.3762537685   -0.8744604005
H        1.6288938575    0.0701944951   -1.9324242707
H        1.7782019095    0.6955572701   -0.2632261809
H        1.4556079417   -1.0379458900   -0.5429093219
H       -0.6508566505   -0.5760481556   -2.7768183746
H       -0.7325077784   -1.7418401327   -1.4378087521
H       -2.0297841335   -0.5342706569   -1.6418030759
H       -1.1263811978    1.3130131063    1.9851003083
21   
torsion grid (-120,)
C       -0.7799804749    0.1172715468    0.5452693004
C       -0.5016327624   -2.2977098404    1.0691214886
C       -0.3157330619    1.6822996700   -1.4149118235
C        1.2311166582   -0.1447702505   -0.8843821603
C       -1.0376338893   -0.6274537434   -1.8083097503
N       -0.8545033408   -0.9053159964    1.2451409405
N       -0.2269033331    0.2604986427   -0.8896327099
O       -1.1884851996    1.3404762558    0.9369687231
H       -0.0251864699   -2.5663111213    0.1213038095
H       -1.4122789193   -2.8929507175    1.1808226553
H        0.1679193941   -2.5810222204    1.8856992959
H        0.0895681021    1.6754445816   -2.4270589231
H       -1.3557464248    1.9990369154   -1.4229611800
H        0.2677276292    2.3397657048   -0.7750937557
H        1.6236027527   -0.0217574615   -1.8941559726
H        1.7661457364    0.5047520578   -0.1918477316
H        1.3275073216   -1.1806453426   -0.5725535647
H       -0.6474740927   -0.5184730754   -2.8205874520
H       -0.9585085193   -1.6626545816   -1.4896810716
H       -2.0775916270   -0.3037296863   -1.7698817735
H       -1.5380508782    1.2490872207    1.8455419740
21   
torsion grid (-105,)
C       -0.8858132108    0.0897987975    0.5028689839
C       -0.3487673087   -2.2486376641    1.1327026992
C       -0.1931887161    1.7017669621   -1.3431432697
C        1.1701381098   -0.2746523307   -0.8679384594
C       -1.0946323097   -0.5253108844   -1.8770655597
N       -0.8915429571   -0.9080479276    1.2417929671
N       -0.2461785009    0.2524129461   -0.8940056555
O       -1.5039350792    1.2525525914    0.7877170868
H       -0.3214191961   -2.6529436833    0.1153246972
H       -0.9640666638   -2.9111053191    1.7436598990
H        0.6635676321   -2.2668526158    1.5491508090
H        0.2893572021    1.7181539440   -2.3206322148
H       -1.2022492554    2.0985613039   -1.4096555691
H        0.3858720859    2.2767476189   -0.6230717435
H        1.6182536420   -0.0880511031   -1.8438456027
H        1.7245417314    0.2557171236   -0.0938959247
H        1.1694511591   -1.3406266661   -0.6653045666
H       -0.6590869944   -0.4152949309   -2.8708435731
H       -1.1124955027   -1.5745578941   -1.5906994905
H       -2.1040110319   -0.1148494630   -1.8601988188
H       -1.9399162343    1.1410577527    1.6558936244
21   
torsion grid (-90,)
C       -0.9580267447    0.0485744636    0.4531909067
C       -0.1954721127   -2.1762634600    1.2584534463
C       -0.0929536835    1.7075330896   -1.2559147882
C        1.1018555533   -0.4003520743   -0.9182527907
C       -1.1538340997   -0.4148323829   -1.9526746239
N       -0.8896961802   -0.9003346116    1.2499325173
N       -0.2652813152    0.2369436091   -0.9143861623
O       -1.7549406428    1.1242731068    0.6181587710
H       -0.3089887411   -2.7310213929    0.3207135752
H       -0.6173527971   -2.7828280977    2.0604914415
H        0.8699170864   -2.0416633660    1.4683435085
H        0.4331123684    1.7598954706   -2.2092084595
H       -1.0673123902    2.1804315327   -1.3307960534
H        0.4941652683    2.1834046831   -0.4714684880
H        1.5876283253   -0.1473106401   -1.8603421730
H        1.6792031001   -0.0036464437   -0.0835066066
H        1.0114495765   -1.4786251470   -0.8392551162
H       -0.6904456468   -0.2897916511   -2.9321589169
H       -1.2551941042   -1.4737224589   -1.7170062221
H       -2.1280248223    0.0721258179   -1.9288951943
H       -2.2459293970    0.9930485109    1.4533917469
21   
torsion grid (-75,)
C       -1.0368737149   -0.0330512623    0.3822387814
C       -0.0350881151   -2.0763188477    1.4219472135
C       -0.0039349132    1.6929712239   -1.1283983604
C        1.0104056968   -0.5320763368   -1.0053166197
C       -1.2000931317   -0.2682425343   -2.0677482829
N       -0.8901286746   -0.9154645077    1.2398330497
N       -0.2956977345    0.2127609193   -0.9505379364
O       -1.9828455047    0.9307075321    0.4363693046
H       -0.1811703491   -2.8122546511    0.6246495427
H       -0.3078668456   -2.5485460022    2.3659920477
H        1.0236125197   -1.8083914280    1.4714864661
H        0.5562206604    1.8094813285   -2.0564114060
H       -0.9390758935    2.2428595800   -1.1728524381
H        0.5921626981    2.0332645360   -0.2817386786
H        1.5001006919   -0.2798682263   -1.9458135771
H        1.6357468747   -0.2204466769   -0.1700674732
H        0.8273898265   -1.6020887315   -0.9703680084
H       -0.6887012963   -0.1048622718   -3.0171238620
H       -1.3966117872   -1.3307426169   -1.9238669890
H       -2.1295571227    0.2968161854   -2.0325506461
H       -2.5041152840    0.7793313463    1.2490881906
21   
torsion grid (-60,)
C       -1.1093652686   -0.1251761264    0.3143850496
C        0.1180855352   -1.9156654135    1.5719735648
C        0.0765668782    1.6293683965   -0.9956536928
C        0.9007127968   -0.6814864925   -1.1107196174
C       -1.2413619321   -0.1158447481   -2.1719508623
N       -0.8865121706   -0.9210927426    1.2363724150
N       -0.3332681862    0.1682554113   -0.9895460328
O       -2.1703410547    0.7127362556    0.2705224178
H        0.1592980268   -2.7203618724    0.8324890192
H       -0.1542931738   -2.3555168566    2.5316460079
H        1.1132902133   -1.4739663946    1.6742090111
H        0.6478383882    1.8150049613   -1.9057606857
H       -0.8157378775    2.2492028564   -0.9694507720
H        0.6944960828    1.8195626728   -0.1178202350
H        1.3933340573   -0.4240323456   -2.0483283638
H        1.5697017404   -0.4720703113   -0.2793222976
H        0.6195488110   -1.7318053825   -1.1244779455
H       -0.6760945361    0.0764727525   -3.0844164845
H       -1.5461978672   -1.1617690745   -2.1309573292
H       -2.1114862842    0.5328692207   -2.1155657901
H       -2.6943355781    0.5611537916    1.0811829419
21   
torsion grid (-45,)
C       -0.3022401184   -1.1783263673    0.1267800643
C       -1.4545989083    0.1357446958    1.9176801375
C       -1.0497360924   -0.4972615424   -2.1233590245
C       -0.1300896721    1.2270843441   -0.6174816281
C        1.3732635684   -0.4401653386   -1.5973175374
N       -0.8451227684   -0.9862769133    1.2239442579
N       -0.0232545422   -0.2112061241   -1.0451518446
O        0.1421473396   -2.3804752599   -0.3023465043
H       -0.7504946743    0.9556860149    2.0817965149
H       -1.7944701779   -0.2171258496    2.8916365233
H       -2.3267980424    0.5160266272    1.3761261913
H       -0.8666907118    0.1795228374   -2.9588115951
H       -0.9438916060   -1.5328490655   -2.4405798529
H       -2.0445224157   -0.3266253420   -1.7115721419
H        0.1192365666    1.8506622437   -1.4759365029
H       -1.1455670200    1.4429386029   -0.2981513729
H        0.5761597379    1.4140041363    0.1899830843
H        1.5394079112    0.2914189025   -2.3883758730
H        2.0931713134   -0.2956672341   -0.7917748440
H        1.4462715492   -1.4507102701   -1.9875988898
H       -0.0583026352   -3.0305605396    0.3993211564
21   
torsion grid (-30,)
C       -0.1814448925   -1.1612959224    0.1832602036
C       -1.6453376836    0.0818760228    1.7629811931
C       -1.1394799742   -0.4364096732   -1.9620828777
C        0.0435470953    1.2308728286   -0.5582797308
C        1.3255446313   -0.4851205748   -1.7378831261
N       -0.8284832501   -0.9938509595    1.2286439581
N        0.0187447076   -0.2070017437   -1.0148388117
O        0.4478117329   -2.3079942890   -0.1466219627
H       -1.0227384882    0.9080561942    2.1192759702
H       -2.1985646602   -0.3091318624    2.6174938808
H       -2.3714125251    0.4665766332    1.0385738471
H       -1.0193532491    0.2241630245   -2.8217301710
H       -1.1257031416   -1.4783895064   -2.2797274698
H       -2.0705557476   -0.2123496522   -1.4425340312
H        0.2958306408    1.8516247478   -1.4176490191
H       -0.9318737903    1.5194750415   -0.1809340765
H        0.8012123984    1.3428222181    0.2168651697
H        1.4164063557    0.2486213462   -2.5389046567
H        2.1470368349   -0.3790278518   -1.0304828115
H        1.3104034610   -1.4924056427   -2.1427295553
H        0.2822881458   -2.9452718205    0.5761143959
21   
torsion grid (-15,)
C       -0.1031040053   -1.1283347880    0.2315631927
C       -1.8007067802    0.0115351870    1.6358751073
C       -1.1973681744   -0.3672386460   -1.8445744901
C        0.1943131307    1.2299859611   -0.5347059305
C        1.2601821237   -0.5443779787   -1.8385666189
N       -0.8374743566   -0.9916410424    1.2235372013
N        0.0447844499   -0.2016156768   -0.9955386832
O        0.7040638533   -2.1864610740    0.0214839929
H       -1.2933741489    0.7874963337    2.2181626504
H       -2.5251139307   -0.4691916016    2.2952603489
H       -2.3504007949    0.4852562282    0.8156855205
H       -1.1060745835    0.2787265638   -2.7185260576
H       -1.2672865216   -1.4103954156   -2.1520396197
H       -2.0735487223   -0.0885984794   -1.2632352884
H        0.3657112166    1.8518689549   -1.4132892718
H       -0.7077475269    1.5569471588   -0.0280422890
H        1.0484168787    1.2915796801    0.1394937788
H        1.2936244874    0.1710631906   -2.6605102103
H        2.1543760808   -0.4602847030   -1.2239177380
H        1.1646898267   -1.5575029247   -2.2186937453
H        0.5859160985   -2.7929783699    0.7793884682
21   
torsion grid (0,)
C       -0.0301340991   -1.0605854907    0.2830378319
C       -1.9285657528   -0.0824929194    1.5571201720
C       -1.2440639580   -0.2992069506   -1.7430643218
C        0.3343342690    1.2405951676   -0.5718895549
C        1.1796093871   -0.6246406276   -1.9202464798
N       -0.8280190958   -0.9630306276    1.2290120765
N        0.0628657944   -0.1885927396   -0.9885242806
O        0.9409972192   -1.9912192387    0.1976751258
H       -1.7064974571    0.3905299595    2.5177101049
H       -2.8205976111   -0.6980057669    1.7022363632
H       -2.1624916565    0.7013122483    0.8301869261
H       -1.1665821191    0.3004479926   -2.6503852272
H       -1.4066448907   -1.3462930640   -1.9978669406
H       -2.0609112692    0.0646978319   -1.1267458732
H        0.4047974476    1.8514813700   -1.4722721530
H       -0.4712582827    1.6027519062    0.0600591621
H        1.2771531766    1.2663407894   -0.0258220397
H        1.1647543601    0.0510935881   -2.7757737179
H        2.1309875358   -0.5580464526   -1.3983467434
H        1.0024415201   -1.6485518831   -2.2401709605
H        0.8817040835   -2.5427465346    1.0028808485
21   
torsion grid (15,)
C        0.0422725519   -0.9900538229    0.3352335875
C       -2.0175363442   -0.2094006174    1.4758921277
C       -1.2894840583   -0.2140741516   -1.6298629357
C        0.4549372843    1.2477839997   -0.6181268830
C        1.0807775963   -0.7124732364   -1.9733541752
N       -0.7972621223   -0.9603635558    1.2497046930
N        0.0720940729   -0.1724770455   -0.9752148782
O        1.1548465343   -1.7498660459    0.3469753368
H       -2.1760032686   -0.1423766203    2.5534112232
H       -2.8667302997   -0.7566950052    1.0541044616
H       -2.0132008948    0.8075398058    1.0695637270
H       -1.2225381350    0.3102581981   -2.5830790179
H       -1.5652689987   -1.2555547779   -1.7944682862
H       -2.0245343205    0.2730841157   -0.9976399782
H        0.4843049641    1.8376581146   -1.5349618614
H       -0.2812727456    1.6598819816    0.0685019648
H        1.4381492804    1.2312559292   -0.1484242451
H        1.0135730161   -0.0911528078   -2.8666704267
H        2.0783062680   -0.6597291219   -1.5465103605
H        0.8306493005   -1.7453043328   -2.2081864797
H        1.1577989200   -2.2421024453    1.1919227247
21   
torsion grid (30,)
C        0.0800944461   -0.9082098912    0.3746200081
C       -2.1183482255   -0.3856843948    1.4127929329
C       -1.3052971895   -0.0837295497   -1.5550914866
C        0.5901945012    1.2540907545   -0.6790533416
C        0.9895433765   -0.8088871948   -1.9880628300
N       -0.7984194536   -0.9694637134    1.2486751023
N        0.0830032111   -0.1427451530   -0.9671403682
O        1.2970256387   -1.4810643978    0.4775775618
H       -2.4287724002   -0.5423890141    2.4463397059
H       -2.8497830552   -0.8805561080    0.7668362619
H       -2.1361253896    0.6915730623    1.2149555282
H       -1.2316296599    0.3648451984   -2.5454705780
H       -1.6994440386   -1.0965948464   -1.6337570323
H       -1.9491262284    0.5273232089   -0.9312064952
H        0.6059110452    1.8160245396   -1.6138063687
H       -0.0782606954    1.7321762094    0.0362349018
H        1.5949873939    1.1789325042   -0.2648642775
H        0.9085555220   -0.2403906739   -2.9146287309
H        2.0127010987   -0.8033382577   -1.6249323427
H        0.6526086186   -1.8334974493   -2.1402987214
H        1.3344600851   -1.9225762750    1.3490908887
21   
torsion grid (45,)
C        0.1034219007   -0.7862049796    0.4235078342
C       -2.2119600882   -0.6127606851    1.3568092634
C       -1.3031016594    0.0860041410   -1.4818825040
C        0.7507534410    1.2633199750   -0.7873450264
C        0.8794101108   -0.9154415646   -1.9652038752
N       -0.8032514284   -0.9534322764    1.2513514517
N        0.0953138527   -0.0929837562   -0.9570893232
O        1.3854909388   -1.1708956123    0.6108635364
H       -2.5792599030   -0.9970180731    2.3086803468
H       -2.8092668733   -1.0604125555    0.5581643715
H       -2.3636329317    0.4714914643    1.3523069096
H       -1.2337580910    0.5384329180   -2.4710527750
H       -1.7851100132   -0.8875927507   -1.5560595387
H       -1.8632986578    0.7435276150   -0.8233963153
H        0.7517724305    1.7667969557   -1.7548350771
H        0.1753554730    1.8403007436   -0.0632625230
H        1.7688635991    1.1173059898   -0.4318062244
H        0.8079137629   -0.4114362719   -2.9292897021
H        1.9145645104   -0.9875541996   -1.6456601725
H        0.4344350557   -1.9086998931   -2.0242061707
H        1.4392231717   -1.5769086259    1.4982158324
21   
torsion grid (60,)
C        0.1174469593   -0.6624482881    0.4749965788
C       -2.2543853759   -0.8611941880    1.2680465080
C       -1.2920133918    0.2819446787   -1.3964625850
C        0.9033440075    1.2626080875   -0.8952530187
C        0.7409552597   -0.9970020503   -1.9121954917
N       -0.8042696399   -0.9498940656    1.2502521476
N        0.1043934707   -0.0269821682   -0.9337885661
O        1.4278528045   -0.8697911619    0.7386940527
H       -2.6023961025   -1.2635566274    2.2196890594
H       -2.7095790150   -1.4503081107    0.4669130552
H       -2.6022245196    0.1728413814    1.1921413263
H       -1.2249553990    0.7228399200   -2.3910393015
H       -1.8712069787   -0.6370850659   -1.4447433671
H       -1.7524185043    0.9927076083   -0.7142121145
H        0.8610283714    1.7146406951   -1.8867077566
H        0.4522592776    1.9277726396   -0.1585845341
H        1.9301255004    1.0368244735   -0.6198797354
H        0.7078923008   -0.5450310251   -2.9040299353
H        1.7679018660   -1.1840614402   -1.6096811726
H        0.1686816439   -1.9248788518   -1.9016925259
H        1.4854460660   -1.2741078829    1.6263476948
21   
torsion grid (75,)
C        0.1228868504   -0.5404745335    0.5336441138
C       -2.2396896330   -1.0964859049    1.1407522703
C       -1.2770694131    0.4735790193   -1.3041609393
C        1.0304204671    1.2341511133   -1.0010125608
C        0.5808153685   -1.0601830333   -1.8337538217
N       -0.7985537107   -0.9483473497    1.2549283062
N        0.1040376227    0.0344193463   -0.8999403415
O        1.4291940684   -0.5690711211    0.8791394227
H       -2.6076712201   -1.5227363068    2.0743084746
H       -2.5105311892   -1.7808196492    0.3302239267
H       -2.7442206604   -0.1394093724    0.9840970031
H       -1.2113064654    0.9084065782   -2.3014295869
H       -1.9449168123   -0.3826022017   -1.3280726663
H       -1.6353939534    1.2224417535   -0.5994522350
H        0.9488610548    1.6293585282   -2.0137896828
H        0.7095072268    1.9823009448   -0.2762708863
H        2.0492055571    0.9227659739   -0.7913474814
H        0.5694821130   -0.6707274434   -2.8524403617
H        1.5900228972   -1.3492108885   -1.5467025950
H       -0.0959284348   -1.9104242656   -1.7481184991
H        1.4847268673   -0.9710926293    1.7682084591
21   
torsion grid (90,)
C        0.1156866292   -0.4205007313    0.5929692900
C       -2.1733936255   -1.2972735313    1.0076428321
C       -1.2592833179    0.6381221323   -1.2274639533
C        1.1262607248    1.1665821838   -1.1045126951
C        0.4195788986   -1.1147916695   -1.7452101355
N       -0.7902329864   -0.9366504708    1.2656810145
N        0.0941595762    0.0765515662   -0.8694695079
O        1.3828381081   -0.2534727043    1.0240334222
H       -2.5115845841   -1.9370261868    1.8234349126
H       -2.3035874054   -1.8489294447    0.0702291313
H       -2.8138075366   -0.4102096531    0.9930684636
H       -1.1901090366    1.0709476793   -2.2251603389
H       -2.0026901115   -0.1520950416   -1.2296479368
H       -1.5243328288    1.4094079520   -0.5047132791
H        1.0242921761    1.4925818204   -2.1396906220
H        0.9247538519    1.9932471607   -0.4244085818
H        2.1211118546    0.7707259353   -0.9249793155
H        0.4191411709   -0.7892901936   -2.7862775942
H        1.4030224520   -1.4909629874   -1.4657886129
H       -0.3365530006   -1.8839896876   -1.5913526025
H        1.4286075924   -0.6171355700    1.9304264274
21   
torsion grid (105,)
C        0.0882846593   -0.3352516840    0.6293646661
C       -2.0992838302   -1.4701849609    0.9118767730
C       -1.2228467762    0.7780959343   -1.1818026582
C        1.2058598795    1.0812778435   -1.1679318563
C        0.2841911323   -1.1392241180   -1.6946892672
N       -0.7926375820   -0.9441582357    1.2578341273
N        0.0886049687    0.1029374765   -0.8521011992
O        1.2768948500    0.0325344073    1.1462341383
H       -2.3117865225   -2.3074944710    1.5785711512
H       -2.1944209688   -1.8249416346   -0.1198036221
H       -2.8604268820   -0.7050320497    1.0956731528
H       -1.1702454354    1.1346082243   -2.2104678743
H       -2.0422305116    0.0738347555   -1.0818723813
H       -1.3625809253    1.6178397787   -0.5012861243
H        1.1122760143    1.3473433139   -2.2210480958
H        1.0941925468    1.9638016134   -0.5409570657
H        2.1659527604    0.6099157726   -0.9778931607
H        0.2930162372   -0.8455146755   -2.7449529802
H        1.2366393653   -1.5932616472   -1.4221066528
H       -0.5297051565   -1.8363851458   -1.5081960590
H        1.2941307778   -0.2749019394    2.0743653069
21   
torsion grid (120,)
C        0.0278564275   -0.2358144198    0.6509353789
C       -2.0247294704   -1.6217890976    0.8742536288
C       -1.1630214480    0.9088554283   -1.2007575810
C        1.2881407032    0.9725911792   -1.2088166846
C        0.1612389387   -1.1598618014   -1.6487689939
N       -0.8191078601   -0.9159643366    1.2518875113
N        0.0818724044    0.1230526042   -0.8503161180
O        1.0996520482    0.3362849801    1.2344174232
H       -1.8909910829   -2.6771143563    1.1280966271
H       -2.3244629316   -1.5524618524   -0.1759120667
H       -2.8432198662   -1.2450176449    1.4935343123
H       -1.1119270559    1.1771166104   -2.2563380627
H       -2.0472807277    0.3067439814   -1.0133878199
H       -1.1866473622    1.8081028289   -0.5855029435
H        1.2368909696    1.1649487198   -2.2807920035
H        1.2500326871    1.9055402640   -0.6518736011
H        2.1972112805    0.4296928735   -0.9620547387
H        0.2072346446   -0.9012980448   -2.7069934975
H        1.0642610564   -1.6936380867   -1.3531107549
H       -0.7136384177   -1.7732701604   -1.4544886492
H        1.0645136638    0.1091388892    2.1847989519
21   
torsion grid (135,)
C       -0.0305093237   -0.1481008256    0.6696496927
C       -1.9148906667   -1.7511197838    0.8541184462
C       -1.1041081066    1.0191920390   -1.2183295663
C        1.3530500652    0.8522266115   -1.2200643396
C        0.0228163719   -1.1655516180   -1.6116087516
N       -0.8226957408   -0.8920643651    1.2703546140
N        0.0678751182    0.1362680675   -0.8453256862
O        0.9030481201    0.6148497651    1.2712436904
H       -1.5294956943   -2.7515150837    0.6320917261
H       -2.4801361938   -1.3880085077   -0.0107609795
H       -2.6056838699   -1.8470764868    1.6932892836
H       -1.0426075294    1.2415193048   -2.2842301882
H       -2.0339971153    0.4996687074   -0.9975309690
H       -1.0408745522    1.9387833045   -0.6369827617
H        1.3440043939    0.9842135396   -2.3022290751
H        1.3916034163    1.8152304997   -0.7188424622
H        2.2017001043    0.2414254667   -0.9181225169
H        0.1507309699   -0.9390627162   -2.6700880755
H        0.8362668065   -1.8024199607   -1.2643513733
H       -0.9314125640   -1.6583008673   -1.4574956083
H        0.8191945915    0.4656814672    2.2340252188
21   
torsion grid (150,)
C       -0.1023048929   -0.0830511994    0.6670501281
C       -1.7783172912   -1.9083496485    0.8743133629
C       -1.0343406425    1.1428749263   -1.2480609627
C        1.4056214594    0.7351407865   -1.1985619146
C       -0.1208782348   -1.1312802358   -1.6191937076
N       -0.8160467105   -0.8963561028    1.2742750002
N        0.0444787977    0.1569588839   -0.8517847916
O        0.6727673753    0.8443674145    1.2660051476
H       -1.2747460692   -2.7888865943    0.4641588668
H       -2.5070827887   -1.5394664385    0.1443962198
H       -2.3243911400   -2.2229077216    1.7642552783
H       -0.9508942810    1.3351437683   -2.3184961273
H       -2.0083705701    0.7124437812   -1.0178781989
H       -0.8858659930    2.0634565135   -0.6847760464
H        1.4480720451    0.8384734626   -2.2829124818
H        1.5237371823    1.7013937705   -0.7178576283
H        2.1770148403    0.0485230105   -0.8520414240
H        0.0965344062   -0.9277071094   -2.6674451451
H        0.5816393803   -1.8677994160   -1.2298938475
H       -1.1398428159   -1.4921786113   -1.5272278354
H        0.5470945443    0.7450453179    2.2304864261
21   
torsion grid (165,)
C       -0.2160809553   -0.0161145036    0.6490129568
C       -1.6046404249   -2.0791800623    0.9253007004
C       -0.9343160056    1.2937216918   -1.3148237368
C        1.4399973043    0.5950703275   -1.1419147019
C       -0.2864400218   -1.0653753698   -1.6446325068
N       -0.8316387177   -0.8968448028    1.2661235819
N        0.0023655189    0.1893777648   -0.8663789986
O        0.3890042928    1.0415932635    1.2337546380
H       -1.0091889004   -2.8246857958    0.3916628126
H       -2.4832855306   -1.8254521664    0.3234567342
H       -1.9551716062   -2.5296144029    1.8542019735
H       -0.7922243306    1.4498286441   -2.3848429791
H       -1.9597131556    0.9844227230   -1.1120528497
H       -0.6955337606    2.1999107646   -0.7615335262
H        1.5568857283    0.6831169982   -2.2222746813
H        1.6479614870    1.5430243202   -0.6550688200
H        2.1002585415   -0.1797760423   -0.7524253347
H       -0.0690013042   -0.8657942178   -2.6938315188
H        0.3552853231   -1.8670090092   -1.2822336199
H       -1.3336513513   -1.3332916610   -1.5384828863
H        0.2330064701    0.9689100944    2.1957930811
21   
torsion grid (180,)
C       -0.3376912004    0.0415481385    0.6300953494
C       -1.3780163892   -2.2159519568    0.9699153752
C       -0.8241008947    1.4336126946   -1.3764467806
C        1.4320997850    0.4404927096   -1.0754507254
C       -0.4800711694   -0.9797049164   -1.6759162882
N       -0.8364059394   -0.8996344943    1.2615284655
N       -0.0571397817    0.2224058463   -0.8789611143
O        0.0941232564    1.1930991189    1.1932452951
H       -0.6331875484   -2.8743744130    0.5142625058
H       -2.2530548263   -2.1609897175    0.3161420811
H       -1.6913504500   -2.6649905773    1.9126852584
H       -0.6349443636    1.5361621425   -2.4454713097
H       -1.8866531350    1.2688716977   -1.1962521439
H       -0.4833133205    2.3151964225   -0.8400204847
H        1.6195870052    0.5383741414   -2.1451904047
H        1.7315742597    1.3428008479   -0.5489143705
H        1.9640970781   -0.4237609030   -0.6772173474
H       -0.2574914507   -0.7812723863   -2.7243349292
H        0.0793823103   -1.8513012532   -1.3444412783
H       -1.5490334465   -1.1387830947   -1.5553563130
H       -0.0645311775    1.1240385108    2.1549094775
