25   
torsion grid (-75,)
C        2.8802265720   -0.8051630837    1.3834551133
C        1.4527543290   -2.3940948780    0.2370414180
C        1.7817715818   -0.3152430872    2.0924548967
C        0.3512731199   -1.9140926618    0.9374952948
C        5.5116644522   -6.9247144323   -3.2743251137
C        2.7325518488   -1.8459432435    0.4517548790
C        0.5252564977   -0.8764212084    1.8620082528
C        4.1845904812   -6.4084838993   -3.5318470645
C        5.0283422870   -4.6148624116   -2.6949500723
C        3.9062072827   -2.3330593906   -0.2711918573
N        6.5315824560   -6.0558795398   -3.2528119672
N        3.9019432523   -5.1310300471   -3.2536434126
N        6.1767854094   -4.7323811873   -3.3957424600
N        3.8175598539   -3.2864608175   -1.1315580535
N        4.9787900856   -3.6696195180   -1.7333704448
O        3.2741004235   -7.1912563338   -4.1455544156
Br      -0.9914119755   -0.2179654709    2.8254289729
H        3.8617751902   -0.3708084044    1.5599044224
H        1.3367525839   -3.1968548641   -0.4841939378
H        1.9018723096    0.4885190931    2.8112032322
H       -0.6343056533   -2.3367550754    0.7716521908
H        5.7306703178   -7.9844973514   -3.2137932688
H        4.8661390297   -1.8477935095   -0.0465872615
H        5.8691000407   -3.2060957501   -1.5347632111
H        2.4551244644   -6.6692483869   -4.2317377156
25   
torsion grid (-60,)
C        2.8875107407   -0.7434130341    1.3785838642
C        1.4772564422   -2.3808015179    0.2823586235
C        1.7819212138   -0.2346412656    2.0632281683
C        0.3685840968   -1.8825675195    0.9585829343
C        5.5257841474   -6.9602264785   -3.5125386579
C        2.7528174789   -1.8177786307    0.4837158987
C        0.5302415440   -0.8110659697    1.8457392300
C        4.1877692622   -6.4486909356   -3.5380911942
C        5.0581729749   -4.6802931926   -2.5766842333
C        3.9336083720   -2.3226776076   -0.2158411483
N        6.5329657092   -6.0914597026   -3.4304312315
N        3.9214518322   -5.2388307337   -3.0586518794
N        6.2102152642   -4.7798197514   -3.2721481339
N        3.8546489470   -3.3051163842   -1.0443538589
N        5.0131131059   -3.7065180096   -1.6296672950
O        3.2100958449   -7.1694435557   -4.1222585970
Br      -0.9972657325   -0.1267732161    2.7750490530
H        3.8653017119   -0.2967926501    1.5451849848
H        1.3704176984   -3.2099143906   -0.4099106601
H        1.8931979211    0.5952918418    2.7531443731
H       -0.6133925218   -2.3171867672    0.8022756124
H        5.7586141674   -8.0086788152   -3.6614319082
H        4.8897362276   -1.8247063759   -0.0030634598
H        5.8976571777   -3.2222789934   -1.4623203614
H        2.3848003854   -6.6565292647   -4.0354040973
25   
torsion grid (-45,)
C        2.9032258414   -0.7098467141    1.3813607748
C        1.5018851545   -2.3646545239    0.3010675243
C        1.7921109833   -0.1906040164    2.0492646411
C        0.3876438409   -1.8562252312    0.9604940977
C        5.5094444268   -6.9573503369   -3.6693552949
C        2.7760239829   -1.7983446498    0.5026285647
C        0.5422920756   -0.7706275306    1.8314372797
C        4.1818002329   -6.4690705934   -3.5209798476
C        5.0839482376   -4.7204374981   -2.5016362829
C        3.9621685763   -2.3140593843   -0.1802706613
N        6.5235093217   -6.1074902978   -3.5329543930
N        3.9453212903   -5.3130420159   -2.9206037536
N        6.2578005810   -4.8429401031   -3.1562269635
N        3.8868207600   -3.3096837624   -0.9934343105
N        5.0421334154   -3.7237560692   -1.5692527432
O        3.1538538835   -7.1645172860   -4.0443523462
Br      -0.9928824689   -0.0716828319    2.7379533585
H        3.8795704962   -0.2602069260    1.5484687219
H        1.4006811201   -3.2049574755   -0.3784545958
H        1.8979990873    0.6502872931    2.7266835186
H       -0.5929930919   -2.2937271165    0.8035618670
H        5.7294079705   -7.9723528297   -3.9816342679
H        4.9172249096   -1.8133463952    0.0309353690
H        5.9263676068   -3.2368678105   -1.4127136938
H        2.3391891456   -6.6699716305   -3.8336793546
25   
torsion grid (-30,)
C        2.8739130078   -0.7074567477    1.3663929558
C        1.4931069706   -2.3815649338    0.2907521217
C        1.7536172331   -0.1879564249    2.0187613067
C        0.3697251072   -1.8732353710    0.9347353889
C        5.5227315172   -6.9163670665   -3.8162630585
C        2.7621447468   -1.8057542824    0.4977175278
C        0.5094549810   -0.7778364129    1.7957668727
C        4.2059601505   -6.4788835601   -3.5279820957
C        5.1135155883   -4.7533065109   -2.4527415175
C        3.9582014914   -2.3221214859   -0.1675999366
N        6.5448995433   -6.0933495139   -3.6046689481
N        3.9811334967   -5.3786530133   -2.8295300953
N        6.3166550724   -4.9013408942   -3.0440540702
N        3.8980143664   -3.3258351232   -0.9723749356
N        5.0590222270   -3.7409510801   -1.5310361270
O        3.1575451637   -7.1790644741   -3.9998867820
Br      -1.0384365988   -0.0794502001    2.6816099385
H        3.8458912588   -0.2500936327    1.5379772703
H        1.4032802053   -3.2298614221   -0.3803833399
H        1.8483430382    0.6605232035    2.6883640435
H       -0.6066768866   -2.3186724458    0.7736388728
H        5.7289153263   -7.8780520560   -4.2735909293
H        4.9083381333   -1.8150112875    0.0502879662
H        5.9392870402   -3.2490225076   -1.3709891818
H        2.3509117622   -6.7231912569   -3.6919430201
25   
torsion grid (-15,)
C        2.8895836534   -0.6842229151    1.3644131037
C        1.5077480899   -2.3661073480    0.3015556347
C        1.7686182104   -0.1559992696    2.0086200435
C        0.3840961399   -1.8487003170    0.9378401341
C        5.4873494075   -6.8693802848   -3.9275360470
C        2.7773964089   -1.7907419217    0.5062352245
C        0.5236792058   -0.7451868282    1.7884150866
C        4.1917226325   -6.4806443058   -3.5169111335
C        5.1251898796   -4.7854606827   -2.4003269068
C        3.9741623156   -2.3166043600   -0.1501859333
N        6.5296245925   -6.0971197022   -3.6406521854
N        3.9939234887   -5.4296588696   -2.7415137876
N        6.3506880949   -4.9865023336   -2.9268961465
N        3.9125545581   -3.3269271128   -0.9467464130
N        5.0711901636   -3.7501924531   -1.5008921941
O        3.1259027574   -7.1871590203   -3.9359026546
Br      -1.0250849486   -0.0349425953    2.6637008673
H        3.8621617197   -0.2273564876    1.5340331688
H        1.4178434376   -3.2210967206   -0.3610545595
H        1.8635466211    0.6988179445    2.6700858155
H       -0.5928367019   -2.2937462047    0.7788871577
H        5.6653053650   -7.7670121074   -4.5100610992
H        4.9255019993   -1.8115888169    0.0672875339
H        5.9559215591   -3.2696287352   -1.3332283900
H        2.3364357537   -6.7649081342   -3.5457464622
25   
torsion grid (0,)
C        3.1066311547   -0.5354512796    1.4481792528
C        1.6126193702   -2.1574100632    0.4472592197
C        2.0336137593    0.0460908380    2.1272272880
C        0.5357174277   -1.5870079798    1.1181641419
C        5.2025843595   -6.8015267311   -3.9862574933
C        2.9140759829   -1.6402740803    0.6021685312
C        0.7559293623   -0.4863985751    1.9553035620
C        3.9612879359   -6.4187950842   -3.4321396206
C        5.0218944225   -4.7828674566   -2.3333702745
C        4.0612676745   -2.2236694784   -0.0931055758
N        6.3049455292   -6.1313740226   -3.6693656931
N        3.8565652345   -5.4015629181   -2.5964807523
N        6.2353701769   -5.1010236463   -2.8302319083
N        3.9262271299   -3.2367137480   -0.8771249208
N        5.0411587468   -3.7094923466   -1.4773551516
O        2.8511131719   -7.1045418470   -3.7599494928
Br      -0.7267127908    0.2994085491    2.8793929482
H        4.1041885811   -0.1221635485    1.5804484059
H        1.4608023423   -3.0109836647   -0.2057520790
H        2.1904099354    0.8992754180    2.7789394890
H       -0.4653430204   -1.9880402978    0.9964055109
H        5.2963030437   -7.6358622978   -4.6732079475
H        5.0411078104   -1.7590814784    0.0837844026
H        5.9575769090   -3.2878106605   -1.3227995060
H        2.1106294169   -6.6877470403   -3.2784188963
25   
torsion grid (15,)
C        2.9101347633   -0.6768375081    1.3808298598
C        1.5164629337   -2.3456902005    0.3137060065
C        1.7939358199   -0.1452733355    2.0305465296
C        0.3971107913   -1.8251636520    0.9550090100
C        5.4240202015   -6.7096592515   -4.1232555043
C        2.7899032013   -1.7784416114    0.5174440784
C        0.5452209540   -0.7264098049    1.8102979092
C        4.1686377096   -6.4655592969   -3.5209118603
C        5.1257565651   -4.8251385073   -2.3440891295
C        3.9818126893   -2.3068103009   -0.1457992026
N        6.4997993023   -6.0596824550   -3.6928515203
N        4.0026167563   -5.5129498972   -2.6209518301
N        6.3775879602   -5.1482215565   -2.7288845651
N        3.9133589127   -3.3175144566   -0.9413084704
N        5.0647274648   -3.7312726359   -1.5173839901
O        3.1139815759   -7.2302758965   -3.8579739116
Br      -0.9974955885   -0.0109892876    2.6919449069
H        3.8856250683   -0.2260680988    1.5499772946
H        1.4201238137   -3.1970174843   -0.3526909913
H        1.8953132372    0.7058697981    2.6957951367
H       -0.5827458390   -2.2637772946    0.7961197393
H        5.5558842974   -7.4455562072   -4.9092645102
H        4.9352813055   -1.8029919319    0.0650477941
H        5.9618065928   -3.2938206107   -1.3036207579
H        2.3522659089   -6.9039965773   -3.3411505487
25   
torsion grid (30,)
C        2.8903680282   -0.6833886063    1.3620846530
C        1.5016367638   -2.3625047989    0.3046169300
C        1.7711368744   -0.1458482298    2.0015396499
C        0.3792629271   -1.8361800957    0.9357763280
C        5.4225587595   -6.6076690537   -4.1983942352
C        2.7740381180   -1.7931009845    0.5086469752
C        0.5234568095   -0.7292589431    1.7811947444
C        4.1852150361   -6.4732029889   -3.5206976344
C        5.1329166432   -4.8699283882   -2.3005250740
C        3.9690853755   -2.3281995092   -0.1435594510
N        6.5064674474   -6.0209132741   -3.7005678052
N        4.0208512137   -5.5877275787   -2.5522855939
N        6.3888080102   -5.2457252872   -2.6177497641
N        3.9053369290   -3.3449791585   -0.9314826018
N        5.0617055420   -3.7608225199   -1.4991557268
O        3.1608753267   -7.2838776350   -3.8457461022
Br      -1.0230898623   -0.0059467378    2.6492084101
H        3.8650309728   -0.2309292469    1.5314288748
H        1.4084918234   -3.2204503287   -0.3536783603
H        1.8693450783    0.7115880054    2.6591233107
H       -0.5997539646   -2.2766291744    0.7768506401
H        5.5396691823   -7.2337913119   -5.0763205581
H        4.9217475205   -1.8238114527    0.0695674203
H        5.9583605867   -3.3282028074   -1.2726019162
H        2.4085933026   -7.0316541233   -3.2767452348
25   
torsion grid (45,)
C        2.9144990881   -0.6641622289    1.3500365542
C        1.5109522709   -2.3468663914    0.3166142939
C        1.8003502461   -0.1102830290    1.9842098889
C        0.3937459560   -1.8041703325    0.9428808672
C        5.3676908262   -6.4801158039   -4.2619200975
C        2.7876186853   -1.7838990774    0.5114247721
C        0.5479754618   -0.6874579775    1.7736308725
C        4.1623244609   -6.4686153645   -3.5069025216
C        5.1223888166   -4.9140123908   -2.2529736744
C        3.9774206915   -2.3373524996   -0.1345771775
N        6.4665970159   -5.9602745098   -3.7221599578
N        4.0204932694   -5.6652899718   -2.4641403488
N        6.3700505432   -5.3498569442   -2.5264609823
N        3.9026595887   -3.3629524699   -0.9096451487
N        5.0577491674   -3.7958119572   -1.4719786843
O        3.1703598353   -7.3233675462   -3.8225773823
Br      -0.9911295044    0.0579391604    2.6353730163
H        3.8928782409   -0.2170045118    1.5118230644
H        1.4104510714   -3.2129453047   -0.3298451117
H        1.9059205354    0.7547962290    2.6305051716
H       -0.5887473692   -2.2395394577    0.7917435804
H        5.4538466383   -6.9782606898   -5.2213781507
H        4.9351025546   -1.8399447130    0.0725068773
H        5.9581100849   -3.3673644639   -1.2501115288
H        2.4405151029   -7.1559395044   -3.1965335854
25   
torsion grid (60,)
C        2.8935635659   -0.6777039864    1.3223339818
C        1.4888207238   -2.3731778390    0.3107898582
C        1.7787155696   -0.1091713199    1.9418455478
C        0.3708999676   -1.8158187591    0.9225668983
C        5.3456715254   -6.3276886961   -4.2987241802
C        2.7662748362   -1.8109788207    0.5021725882
C        0.5252283076   -0.6855727302    1.7349809291
C        4.1758526016   -6.4788975172   -3.4855559456
C        5.1232404425   -4.9810057669   -2.1940845930
C        3.9570395613   -2.3788341973   -0.1288477432
N        6.4545031808   -5.8564193652   -3.7292257292
N        4.0445021602   -5.7840084263   -2.3610810863
N        6.3641228508   -5.4540797004   -2.4332528369
N        3.8849878051   -3.4166884181   -0.8874751191
N        5.0477667600   -3.8551966599   -1.4364809534
O        3.2410941241   -7.3883401021   -3.8257359756
Br      -1.0148315722    0.0796231821    2.5763017988
H        3.8728277447   -0.2314502541    1.4810584731
H        1.3881643656   -3.2498920591   -0.3211232443
H        1.8843122786    0.7663174369    2.5739244032
H       -0.6124357611   -2.2501867728    0.7743118048
H        5.3991737041   -6.6752764290   -5.3243699204
H        4.9148464573   -1.8804078747    0.0751311966
H        5.9453307534   -3.4166345621   -1.2197971417
H        2.5338101342   -7.3368905756   -3.1557823105
25   
torsion grid (75,)
C        2.8773153948   -0.6879577822    1.2645935806
C        1.4759336357   -2.4226888922    0.3134799355
C        1.7606171534   -0.0986200598    1.8603462074
C        0.3562862123   -1.8445663917    0.9020486692
C        5.2803189853   -6.0937501962   -4.3065170652
C        2.7516302448   -1.8508192478    0.4867322398
C        0.5083346611   -0.6844328328    1.6719618399
C        4.1768494273   -6.4629590953   -3.4466977790
C        5.1345646227   -5.0845109401   -2.1018904895
C        3.9439676627   -2.4386510656   -0.1216520896
N        6.4167554801   -5.6800615247   -3.7290905330
N        4.0913790377   -5.9482106643   -2.2150447215
N        6.3698869105   -5.5675636885   -2.3569274867
N        3.8746847812   -3.5019591037   -0.8438829910
N        5.0468785021   -3.9519861320   -1.3739568554
O        3.2995747840   -7.4015154378   -3.8562661159
Br      -1.0336260472    0.1098947155    2.4801385188
H        3.8558228024   -0.2350727584    1.4082979809
H        1.3777886206   -3.3224823167   -0.2855244772
H        1.8634416265    0.7998013886    2.4597962567
H       -0.6262710622   -2.2852986284    0.7684084080
H        5.2683698519   -6.2458414749   -5.3795872827
H        4.9005062701   -1.9315988148    0.0663310574
H        5.9391102220   -3.4881939654   -1.1847289499
H        2.6410263204   -7.5115157907   -3.1457347646
