35
0 1 C16H16INO
C                     2.162965286311    -0.638807747714     0.025641022446
C                     1.083003548731    -0.061263041475     0.690960093322
C                     6.538293175688    -6.496604081729    -0.218096831307
C                     5.527064482674    -5.651587410537     0.228407568793
C                     2.543799551290    -2.054667233359     1.941777530917
C                     6.383902470035    -3.887559530998    -1.190226128379
C                     2.897921887318    -1.657246617809     0.642558756871
C                     0.717306371404    -0.462015928254     1.983269823870
C                     7.501547144333    -6.083606849228    -1.152609492274
C                     1.469944312342    -1.471802549867     2.622730623888
C                     5.439189500283    -4.335753763268    -0.253240728142
C                     7.386573129277    -4.762556954024    -1.614976593108
C                     4.049088673178    -2.241677681719    -0.121666503364
C                    -0.453536842431     0.185911373753     2.681876173338
C                     8.579756728543    -7.034048919009    -1.608308801501
C                     1.131453209645    -1.911756101231     4.027774976205
N                     4.399818025475    -3.525788213562     0.247186782099
O                     4.616696251626    -1.616106005446    -1.015695028048
I                     8.785575913006    -4.002225993551    -3.041277131419
H                     2.451043771688    -0.313824470123    -0.969015052145
H                     0.511219714320     0.721823899042     0.198271836830
H                     6.586175680343    -7.511606152220     0.168471365089
H                     4.802469801174    -6.015018487002     0.954661353143
H                     3.136392729165    -2.800072316679     2.468651238480
H                     6.317923999229    -2.879352619778    -1.572215185034
H                    -1.220946876332    -0.551193972485     2.945689713980
H                    -0.145067227630     0.670218997842     3.615727955470
H                    -0.920408527230     0.944705825860     2.049167431107
H                     8.540068834626    -7.191978513134    -2.691154533712
H                     9.577206498966    -6.644325752208    -1.379475451433
H                     8.470753075990    -8.004419283951    -1.117043454902
H                     1.192979051107    -1.077153785714     4.735646202611
H                     0.110504240369    -2.305965060913     4.090016715056
H                     1.813046797546    -2.693044553621     4.374226327636
H                     3.781465061911    -3.985704700026     0.901725401921
