22
0 1 C9H11IO
C                     1.803522459729    -1.006775190526    -0.135775140399
C                     0.729064948322    -0.461381910455     0.566507069770
C                     2.853452618005    -1.635335135800     1.976139293251
C                     1.761470307870    -1.094714245695     2.688215922701
C                     2.862604520901    -1.591685583154     0.566972602837
C                     0.710741351303    -0.505577706277     1.959858071551
C                     4.013110766600    -2.263933271793     2.715220941742
C                     1.781682379601    -1.163804431961     4.196789150110
C                     4.015520427946    -2.114293318050    -1.470586744059
O                     3.954855605433    -2.149448867367    -0.048782873221
I                    -0.987880643047     0.383790592843     2.916826499747
H                     1.797461867220    -0.966141741602    -1.218591688487
H                    -0.089330203846    -0.004633803746     0.020148226501
H                     3.709621407865    -3.195534828380     3.208102088619
H                     4.830453051914    -2.497716429071     2.034306780338
H                     4.393770223179    -1.597138203965     3.495581217305
H                     2.532153085856    -0.477679520773     4.607581057753
H                     0.818303668012    -0.897323970472     4.629692732792
H                     2.041874585962    -2.169094200890     4.540920387562
H                     4.955672064771    -2.597693397931    -1.739888138131
H                     4.016874190254    -1.083701131297    -1.846316343409
H                     3.181978625894    -2.667044241016    -1.921066307490
