
  -OEChem-12122420533D

 35 36  0     0  0  0  0  0  0999 V2000
    2.1630   -0.6388    0.0256 C   0  0  0  0  0  0  0  0  0  0  0  0
    1.0830   -0.0613    0.6910 C   0  0  0  0  0  0  0  0  0  0  0  0
    6.5383   -6.4966   -0.2181 C   0  0  0  0  0  0  0  0  0  0  0  0
    5.5271   -5.6516    0.2284 C   0  0  0  0  0  0  0  0  0  0  0  0
    2.5438   -2.0547    1.9418 C   0  0  0  0  0  0  0  0  0  0  0  0
    6.3839   -3.8876   -1.1902 C   0  0  0  0  0  0  0  0  0  0  0  0
    2.8979   -1.6572    0.6426 C   0  0  0  0  0  0  0  0  0  0  0  0
    0.7173   -0.4620    1.9833 C   0  0  0  0  0  0  0  0  0  0  0  0
    7.5015   -6.0836   -1.1526 C   0  0  0  0  0  0  0  0  0  0  0  0
    1.4699   -1.4718    2.6227 C   0  0  0  0  0  0  0  0  0  0  0  0
    5.4392   -4.3358   -0.2532 C   0  0  0  0  0  0  0  0  0  0  0  0
    7.3866   -4.7626   -1.6150 C   0  0  0  0  0  0  0  0  0  0  0  0
    4.0491   -2.2417   -0.1217 C   0  0  0  0  0  0  0  0  0  0  0  0
   -0.4535    0.1859    2.6819 C   0  0  0  0  0  0  0  0  0  0  0  0
    8.5798   -7.0340   -1.6083 C   0  0  0  0  0  0  0  0  0  0  0  0
    1.1315   -1.9118    4.0278 C   0  0  0  0  0  0  0  0  0  0  0  0
    4.3998   -3.5258    0.2472 N   0  0  0  0  0  0  0  0  0  0  0  0
    4.6167   -1.6161   -1.0157 O   0  0  0  0  0  0  0  0  0  0  0  0
    8.7856   -4.0022   -3.0413 I   0  0  0  0  0  0  0  0  0  0  0  0
    2.4510   -0.3138   -0.9690 H   0  0  0  0  0  0  0  0  0  0  0  0
    0.5112    0.7218    0.1983 H   0  0  0  0  0  0  0  0  0  0  0  0
    6.5862   -7.5116    0.1685 H   0  0  0  0  0  0  0  0  0  0  0  0
    4.8025   -6.0150    0.9547 H   0  0  0  0  0  0  0  0  0  0  0  0
    3.1364   -2.8001    2.4687 H   0  0  0  0  0  0  0  0  0  0  0  0
    6.3179   -2.8794   -1.5722 H   0  0  0  0  0  0  0  0  0  0  0  0
   -1.2209   -0.5512    2.9457 H   0  0  0  0  0  0  0  0  0  0  0  0
   -0.1451    0.6702    3.6157 H   0  0  0  0  0  0  0  0  0  0  0  0
   -0.9204    0.9447    2.0492 H   0  0  0  0  0  0  0  0  0  0  0  0
    8.5401   -7.1920   -2.6912 H   0  0  0  0  0  0  0  0  0  0  0  0
    9.5772   -6.6443   -1.3795 H   0  0  0  0  0  0  0  0  0  0  0  0
    8.4708   -8.0044   -1.1170 H   0  0  0  0  0  0  0  0  0  0  0  0
    1.1930   -1.0772    4.7356 H   0  0  0  0  0  0  0  0  0  0  0  0
    0.1105   -2.3060    4.0900 H   0  0  0  0  0  0  0  0  0  0  0  0
    1.8130   -2.6930    4.3742 H   0  0  0  0  0  0  0  0  0  0  0  0
    3.7815   -3.9857    0.9017 H   0  0  0  0  0  0  0  0  0  0  0  0
  1  2  1  0  0  0  0
  1  7  2  0  0  0  0
  1 20  1  0  0  0  0
  2  8  2  0  0  0  0
  2 21  1  0  0  0  0
  3  4  2  0  0  0  0
  3  9  1  0  0  0  0
  3 22  1  0  0  0  0
  4 11  1  0  0  0  0
  4 23  1  0  0  0  0
  5  7  1  0  0  0  0
  5 10  2  0  0  0  0
  5 24  1  0  0  0  0
  6 11  2  0  0  0  0
  6 12  1  0  0  0  0
  6 25  1  0  0  0  0
  7 13  1  0  0  0  0
  8 10  1  0  0  0  0
  8 14  1  0  0  0  0
  9 12  2  0  0  0  0
  9 15  1  0  0  0  0
 10 16  1  0  0  0  0
 11 17  1  0  0  0  0
 12 19  1  0  0  0  0
 13 17  1  0  0  0  0
 13 18  2  0  0  0  0
 14 26  1  0  0  0  0
 14 27  1  0  0  0  0
 14 28  1  0  0  0  0
 15 29  1  0  0  0  0
 15 30  1  0  0  0  0
 15 31  1  0  0  0  0
 16 32  1  0  0  0  0
 16 33  1  0  0  0  0
 16 34  1  0  0  0  0
 17 35  1  0  0  0  0
M  END
$$$$
