15
0 1 C7H4INOS
C                    -3.359015470277     0.522859067613    -5.306479010322
C                    -0.303495857031     0.787520043223    -2.064644822040
C                    -0.438408745500    -0.076369606186    -0.950471698413
C                    -1.050632984988     0.394264306326    -3.161201048937
C                    -1.292178711562    -1.128773413916    -1.215026521075
C                    -1.068984321477     1.095376045298    -4.451527566177
C                    -1.923111397489     0.517263039777    -5.601909291186
N                    -4.494729508988     0.537140819680    -5.057933438733
O                    -0.402335507647     2.101384225208    -4.647402203784
S                    -1.946339022597    -1.068062494776    -2.813693073493
I                    -1.822971426172    -2.668444174035     0.104148933197
H                     0.318754438479     1.675546491814    -2.089312751097
H                     0.062878169698     0.060279438626     0.000819669040
H                    -1.731509394890     1.127314604641    -6.487102879540
H                    -1.612602222590    -0.511962906670    -5.816083315955
