
  -OEChem-12102412493D

 15 15  0     0  0  0  0  0  0999 V2000
   -3.3590    0.5229   -5.3065 C   0  0  0  0  0  0  0  0  0  0  0  0
   -0.3035    0.7875   -2.0646 C   0  0  0  0  0  0  0  0  0  0  0  0
   -0.4384   -0.0764   -0.9505 C   0  0  0  0  0  0  0  0  0  0  0  0
   -1.0506    0.3943   -3.1612 C   0  0  0  0  0  0  0  0  0  0  0  0
   -1.2922   -1.1288   -1.2150 C   0  0  0  0  0  0  0  0  0  0  0  0
   -1.0690    1.0954   -4.4515 C   0  0  0  0  0  0  0  0  0  0  0  0
   -1.9231    0.5173   -5.6019 C   0  0  0  0  0  0  0  0  0  0  0  0
   -4.4947    0.5371   -5.0579 N   0  0  0  0  0  0  0  0  0  0  0  0
   -0.4023    2.1014   -4.6474 O   0  0  0  0  0  0  0  0  0  0  0  0
   -1.9463   -1.0681   -2.8137 S   0  0  0  0  0  0  0  0  0  0  0  0
   -1.8230   -2.6684    0.1041 I   0  0  0  0  0  0  0  0  0  0  0  0
    0.3188    1.6755   -2.0893 H   0  0  0  0  0  0  0  0  0  0  0  0
    0.0629    0.0603    0.0008 H   0  0  0  0  0  0  0  0  0  0  0  0
   -1.7315    1.1273   -6.4871 H   0  0  0  0  0  0  0  0  0  0  0  0
   -1.6126   -0.5120   -5.8161 H   0  0  0  0  0  0  0  0  0  0  0  0
  1  7  1  0  0  0  0
  1  8  3  0  0  0  0
  2  3  1  0  0  0  0
  2  4  2  0  0  0  0
  2 12  1  0  0  0  0
  3  5  2  0  0  0  0
  3 13  1  0  0  0  0
  4  6  1  0  0  0  0
  4 10  1  0  0  0  0
  5 10  1  0  0  0  0
  5 11  1  0  0  0  0
  6  7  1  0  0  0  0
  6  9  2  0  0  0  0
  7 14  1  0  0  0  0
  7 15  1  0  0  0  0
M  END
$$$$
