
  -OEChem-12102412493D

 35 36  0     0  0  0  0  0  0999 V2000
    2.5010   -0.3582    0.2788 C   0  0  0  0  0  0  0  0  0  0  0  0
    1.4715    0.2534    0.9920 C   0  0  0  0  0  0  0  0  0  0  0  0
    7.0857   -4.9602   -1.9348 C   0  0  0  0  0  0  0  0  0  0  0  0
    6.0736   -4.0886   -1.5335 C   0  0  0  0  0  0  0  0  0  0  0  0
    1.9403   -2.4551    1.3328 C   0  0  0  0  0  0  0  0  0  0  0  0
    5.9101   -5.3272    0.5394 C   0  0  0  0  0  0  0  0  0  0  0  0
    2.7558   -1.7226    0.4556 C   0  0  0  0  0  0  0  0  0  0  0  0
    0.6616   -0.4701    1.8781 C   0  0  0  0  0  0  0  0  0  0  0  0
    7.5471   -6.0243   -1.1444 C   0  0  0  0  0  0  0  0  0  0  0  0
    0.8962   -1.8532    2.0428 C   0  0  0  0  0  0  0  0  0  0  0  0
    5.4727   -4.2720   -0.2787 C   0  0  0  0  0  0  0  0  0  0  0  0
    6.9255   -6.1778    0.1059 C   0  0  0  0  0  0  0  0  0  0  0  0
    3.8771   -2.3280   -0.3362 C   0  0  0  0  0  0  0  0  0  0  0  0
   -0.4508    0.2178    2.6318 C   0  0  0  0  0  0  0  0  0  0  0  0
    8.6469   -6.9292   -1.6394 C   0  0  0  0  0  0  0  0  0  0  0  0
    0.0275   -2.6782    2.9629 C   0  0  0  0  0  0  0  0  0  0  0  0
    4.4343   -3.4616    0.2229 N   0  0  0  0  0  0  0  0  0  0  0  0
    4.2664   -1.8319   -1.3923 O   0  0  0  0  0  0  0  0  0  0  0  0
    7.5152   -7.7515    1.4264 I   0  0  0  0  0  0  0  0  0  0  0  0
    3.1154    0.2040   -0.4172 H   0  0  0  0  0  0  0  0  0  0  0  0
    1.2888    1.3170    0.8566 H   0  0  0  0  0  0  0  0  0  0  0  0
    7.5426   -4.8064   -2.9095 H   0  0  0  0  0  0  0  0  0  0  0  0
    5.7531   -3.2762   -2.1701 H   0  0  0  0  0  0  0  0  0  0  0  0
    2.0771   -3.5293    1.4415 H   0  0  0  0  0  0  0  0  0  0  0  0
    5.4539   -5.4807    1.5137 H   0  0  0  0  0  0  0  0  0  0  0  0
   -1.4276   -0.2159    2.3875 H   0  0  0  0  0  0  0  0  0  0  0  0
   -0.3222    0.1184    3.7159 H   0  0  0  0  0  0  0  0  0  0  0  0
   -0.4886    1.2838    2.3945 H   0  0  0  0  0  0  0  0  0  0  0  0
    9.5101   -6.9138   -0.9657 H   0  0  0  0  0  0  0  0  0  0  0  0
    8.3094   -7.9692   -1.7031 H   0  0  0  0  0  0  0  0  0  0  0  0
    8.9831   -6.6185   -2.6317 H   0  0  0  0  0  0  0  0  0  0  0  0
    0.0750   -2.3118    3.9950 H   0  0  0  0  0  0  0  0  0  0  0  0
   -1.0256   -2.6412    2.6612 H   0  0  0  0  0  0  0  0  0  0  0  0
    0.3364   -3.7268    2.9663 H   0  0  0  0  0  0  0  0  0  0  0  0
    4.1195   -3.6983    1.1542 H   0  0  0  0  0  0  0  0  0  0  0  0
  1  2  1  0  0  0  0
  1  7  2  0  0  0  0
  1 20  1  0  0  0  0
  2  8  2  0  0  0  0
  2 21  1  0  0  0  0
  3  4  2  0  0  0  0
  3  9  1  0  0  0  0
  3 22  1  0  0  0  0
  4 11  1  0  0  0  0
  4 23  1  0  0  0  0
  5  7  1  0  0  0  0
  5 10  2  0  0  0  0
  5 24  1  0  0  0  0
  6 11  2  0  0  0  0
  6 12  1  0  0  0  0
  6 25  1  0  0  0  0
  7 13  1  0  0  0  0
  8 10  1  0  0  0  0
  8 14  1  0  0  0  0
  9 12  2  0  0  0  0
  9 15  1  0  0  0  0
 10 16  1  0  0  0  0
 11 17  1  0  0  0  0
 12 19  1  0  0  0  0
 13 17  1  0  0  0  0
 13 18  2  0  0  0  0
 14 26  1  0  0  0  0
 14 27  1  0  0  0  0
 14 28  1  0  0  0  0
 15 29  1  0  0  0  0
 15 30  1  0  0  0  0
 15 31  1  0  0  0  0
 16 32  1  0  0  0  0
 16 33  1  0  0  0  0
 16 34  1  0  0  0  0
 17 35  1  0  0  0  0
M  END
$$$$
