35
0 1 C16H16INO
C                     2.158886928132    -0.630142576725     0.023986877987
C                     1.075271682296    -0.063004246169     0.692384865920
C                     7.398554283422    -4.743488217282    -1.626180544684
C                     6.398002439148    -3.866718357524    -1.207573478113
C                     2.553273611980    -2.048295262395     1.935933207842
C                     5.537069641488    -5.623301253469     0.217407662658
C                     2.902359392778    -1.644452494007     0.637356394545
C                     0.714694421485    -0.470280411552     1.984141219983
C                     7.514548938439    -6.062233979659    -1.160059444841
C                     1.475903286951    -1.475891385755     2.620089426345
C                     5.451541073183    -4.308505402087    -0.270406257878
C                     6.549964755872    -6.472384550982    -0.224889736282
C                     4.056779427835    -2.219746440233    -0.128776120900
C                    -0.459919090016     0.166841155315     2.686278821895
C                     8.621010039777    -6.958519450438    -1.656152819098
C                     1.142891613184    -1.922791642159     4.024201146162
N                     4.407320816387    -3.506189918603     0.232077312205
O                     4.625807704215    -1.586066276812    -1.016353329790
I                     6.589833808316    -8.451866275665     0.580092482838
H                     2.442624572850    -0.300315316783    -0.970341323696
H                     0.496364223029     0.716633961798     0.202538185213
H                     8.125338202794    -4.387932969912    -2.352719084583
H                     6.339943650352    -2.860527807272    -1.597764268231
H                     3.152427227282    -2.790744499403     2.459476681508
H                     4.810533948562    -5.978857199354     0.943203708722
H                    -1.219432789205    -0.577271153372     2.953068423419
H                    -0.152660417885     0.654318566771     3.618900483975
H                    -0.936003908805     0.920998004183     2.054877824721
H                     9.257237503536    -7.300102842499    -0.832770076467
H                     8.220911406533    -7.853747678069    -2.143885780813
H                     9.250127430907    -6.429976934915    -2.376619172216
H                     1.198939703208    -1.089909898717     4.734551372005
H                     0.125122565019    -2.325076788011     4.086491167142
H                     1.830792067375    -2.700022025024     4.367161430866
H                     3.786257602946    -3.970305352148     0.881138524556
