35
0 1 C16H16INO
C                     2.500964868047    -0.358211050205     0.278822890207
C                     1.471455764166     0.253439079636     0.992011008762
C                     7.085736377146    -4.960191873163    -1.934779273433
C                     6.073608760221    -4.088635207987    -1.533471824812
C                     1.940253146001    -2.455121568940     1.332814594702
C                     5.910128811546    -5.327182100296     0.539397072554
C                     2.755827381462    -1.722613174547     0.455565623189
C                     0.661615714127    -0.470055262524     1.878136467601
C                     7.547092125080    -6.024259111749    -1.144380172802
C                     0.896220884701    -1.853167611339     2.042788062246
C                     5.472714522320    -4.271998064293    -0.278659353282
C                     6.925528474042    -6.177825555103     0.105924428574
C                     3.877069058473    -2.328018156035    -0.336196024091
C                    -0.450802657869     0.217803831177     2.631795244295
C                     8.646928250537    -6.929234132712    -1.639429194667
C                     0.027463191253    -2.678249229779     2.962919861545
N                     4.434265794981    -3.461628217907     0.222874952262
O                     4.266415715688    -1.831852072830    -1.392299648375
I                     7.515186554644    -7.751525738393     1.426396367012
H                     3.115355765415     0.203996264224    -0.417185257366
H                     1.288782140010     1.317025999943     0.856609144676
H                     7.542642961845    -4.806417119200    -2.909501485919
H                     5.753144089790    -3.276215588383    -2.170119068977
H                     2.077094229223    -3.529258933426     1.441489495913
H                     5.453874395425    -5.480655191498     1.513735414600
H                    -1.427621629217    -0.215860777128     2.387521852621
H                    -0.322232270484     0.118386012124     3.715882336282
H                    -0.488564574285     1.283788792099     2.394457794197
H                     9.510135261344    -6.913783147722    -0.965683659349
H                     8.309376739021    -7.969197910280    -1.703120863199
H                     8.983130598296    -6.618501443943    -2.631715989424
H                     0.074970149426    -2.311849670249     3.994967015747
H                    -1.025612306403    -2.641202930287     2.661202251613
H                     0.336428258802    -3.726793525857     2.966282110664
H                     4.119451742307    -3.698269011499     1.154163278275
