
  -OEChem-12122420533D

 17 17  0     0  0  0  0  0  0999 V2000
    1.9433   -0.9244   -0.1139 C   0  0  0  0  0  0  0  0  0  0  0  0
    0.6995   -0.4918    1.9650 C   0  0  0  0  0  0  0  0  0  0  0  0
    0.8354   -0.4347    0.5700 C   0  0  0  0  0  0  0  0  0  0  0  0
    2.9598   -1.5513    0.5961 C   0  0  0  0  0  0  0  0  0  0  0  0
    1.7519   -1.1349    2.6504 C   0  0  0  0  0  0  0  0  0  0  0  0
    2.8784   -1.6739    1.9959 C   0  0  0  0  0  0  0  0  0  0  0  0
   -0.4540    0.1217    2.7206 C   0  0  0  0  0  0  0  0  0  0  0  0
   -0.2242    0.1441   -0.2801 N   0  3  0  0  0  0  0  0  0  0  0  0
   -1.3980   -0.0832    0.0281 O   0  5  0  0  0  0  0  0  0  0  0  0
    0.1361    0.7915   -1.2676 O   0  0  0  0  0  0  0  0  0  0  0  0
    4.3102   -2.1703   -0.3160 Cl  0  0  0  0  0  0  0  0  0  0  0  0
    1.6214   -1.2655    4.3886 Cl  0  0  0  0  0  0  0  0  0  0  0  0
    4.4200   -2.6418    3.0727 I   0  0  0  0  0  0  0  0  0  0  0  0
    2.0001   -0.8238   -1.1910 H   0  0  0  0  0  0  0  0  0  0  0  0
   -1.1551   -0.6550    3.0425 H   0  0  0  0  0  0  0  0  0  0  0  0
   -0.0876    0.6282    3.6152 H   0  0  0  0  0  0  0  0  0  0  0  0
   -1.0077    0.8329    2.1124 H   0  0  0  0  0  0  0  0  0  0  0  0
  1  3  1  0  0  0  0
  1  4  2  0  0  0  0
  1 14  1  0  0  0  0
  2  3  2  0  0  0  0
  2  5  1  0  0  0  0
  2  7  1  0  0  0  0
  3  8  1  0  0  0  0
  4  6  1  0  0  0  0
  4 11  1  0  0  0  0
  5  6  2  0  0  0  0
  5 12  1  0  0  0  0
  6 13  1  0  0  0  0
  7 15  1  0  0  0  0
  7 16  1  0  0  0  0
  7 17  1  0  0  0  0
  8  9  1  0  0  0  0
  8 10  2  0  0  0  0
M  CHG  2   8   1   9  -1
M  END
$$$$
