32
0 1 C14H11IN2O2S2
C                     1.103212979868     0.230032201039    -2.404421798899
C                     2.310995742276    -0.487900329883    -2.508009259200
C                    -0.067913560738    -0.234852952511    -2.999894161185
C                     2.264674151638    -3.529758561381    -7.788920553995
C                     0.816909910491    -1.599122697882    -7.444287439584
C                     3.386030464309    -2.724419443983    -7.587652230043
C                     1.937252684758    -0.796337040446    -7.227106037226
C                     2.393895077735    -1.698850170271    -3.194929666614
C                     1.208373271257    -2.181916603921    -3.787743971770
C                     0.000503591493    -1.446725672662    -3.695764648598
C                     0.993588983454    -2.960291512425    -7.700637702976
C                     3.212296913411    -1.369331637606    -7.280899906417
C                    -0.064766776704    -3.487753548628    -5.039500339073
C                     3.682883395769    -2.463454887608    -3.345655904751
N                     1.131405774200    -3.334235387402    -4.557619691009
N                    -0.409438870309    -4.518137551774    -5.934337875169
O                    -0.185955607676    -5.276538915174    -8.348554299728
O                    -1.634043969865    -3.228334935848    -7.805664710502
S                    -1.261446665676    -2.272570301138    -4.592282205919
S                    -0.435443008865    -4.036341836652    -7.618420773281
I                     4.911270953484    -0.170703259935    -6.854108727984
H                     1.086180903332     1.168217537060    -1.856504571079
H                     3.207379518305    -0.082209203708    -2.045661743213
H                    -0.994354692294     0.327082994553    -2.927889721935
H                     2.376889581770    -4.590336638278    -7.992925401474
H                    -0.182464863747    -1.181782550347    -7.386933398414
H                     4.379881353439    -3.155564057493    -7.645118499116
H                     1.811057810915     0.256120208892    -6.997144661265
H                     3.591704934680    -3.473837188132    -2.934290575390
H                     3.944159044843    -2.572967857351    -4.403068655245
H                     4.504137814117    -1.951365380582    -2.838307820241
H                     0.258467930046    -5.286786553570    -5.852210175335
