31
0 1 C14ClH12IN2O
C                     2.803500390151    -1.773604330727     2.071794233702
C                     1.809256994408    -1.065635428791     2.748763775884
C                     1.866939607000    -1.046931019976    -0.034246523413
C                     6.522028898243    -6.506828325200    -0.351811726072
C                     7.574219728021    -4.432912884649    -0.970895218774
C                     2.833800315219    -1.774795619755     0.670752059213
C                     0.817242937585    -0.346500898294     2.066734045418
C                     5.426573248817    -5.781650104114     0.120532370766
C                     0.878743267413    -0.358531631051     0.661349813163
C                     7.607918669440    -5.828847176112    -0.910691627118
C                     5.503343690864    -4.374719526089     0.018064035598
C                     3.878544849045    -2.493906771204    -0.133182875873
C                    -0.250622533932     0.408740785024     2.813713510317
C                     4.213532989110    -6.470330322092     0.695790756283
N                     6.546180842477    -3.724463585058    -0.498959921915
N                     4.444396448171    -3.589519194670     0.520073870367
O                     4.175978748290    -2.156820194785    -1.268181895628
Cl                   -0.326353412641     0.529259878734    -0.263450101733
I                     9.288211245821    -6.893414397202    -1.655391888728
H                     3.575873328397    -2.281502875955     2.642605165227
H                     1.803727224851    -1.058666022049     3.835844359851
H                     1.905481784630    -1.026741131353    -1.118188340381
H                     6.514577850278    -7.591575703344    -0.297702461971
H                     8.400543653464    -3.868191835592    -1.396507517385
H                    -0.218101138809     1.476520868506     2.573824928637
H                    -1.249259254130     0.052862549051     2.540117769096
H                    -0.124919556765     0.292425639121     3.892642526820
H                     4.091303726950    -6.258828552277     1.766161246880
H                     3.298122191378    -6.147560899697     0.187919918773
H                     4.293591240918    -7.554781503876     0.589923801646
H                     3.904232412627    -3.986961194271     1.276426180231
