
  -OEChem-12122420533D

 31 32  0     0  0  0  0  0  0999 V2000
    1.3498   -1.2147   -0.1974 C   0  0  0  0  0  0  0  0  0  0  0  0
    0.5800   -0.3764    0.6070 C   0  0  0  0  0  0  0  0  0  0  0  0
    2.7430   -1.7388    1.7065 C   0  0  0  0  0  0  0  0  0  0  0  0
    3.9085   -6.3858    2.6955 C   0  0  0  0  0  0  0  0  0  0  0  0
    1.7064   -5.5074    2.2871 C   0  0  0  0  0  0  0  0  0  0  0  0
    2.4270   -1.9154    0.3542 C   0  0  0  0  0  0  0  0  0  0  0  0
    0.8658   -0.1865    1.9681 C   0  0  0  0  0  0  0  0  0  0  0  0
    4.4058   -5.5492    1.6962 C   0  0  0  0  0  0  0  0  0  0  0  0
    1.9709   -0.8833    2.4856 C   0  0  0  0  0  0  0  0  0  0  0  0
    2.5448   -6.3626    3.0046 C   0  0  0  0  0  0  0  0  0  0  0  0
    3.4680   -4.7252    1.0323 C   0  0  0  0  0  0  0  0  0  0  0  0
    3.2566   -2.7714   -0.5435 C   0  0  0  0  0  0  0  0  0  0  0  0
    0.0255    0.7268    2.8219 C   0  0  0  0  0  0  0  0  0  0  0  0
    5.8718   -5.5100    1.3478 C   0  0  0  0  0  0  0  0  0  0  0  0
    2.1624   -4.7201    1.3084 N   0  0  0  0  0  0  0  0  0  0  0  0
    3.9274   -3.8631    0.0161 N   0  0  0  0  0  0  0  0  0  0  0  0
    3.4380   -2.4940   -1.7246 O   0  0  0  0  0  0  0  0  0  0  0  0
    2.4087   -0.6853    4.1812 Cl  0  0  0  0  0  0  0  0  0  0  0  0
    1.7540   -7.6042    4.5344 I   0  0  0  0  0  0  0  0  0  0  0  0
    1.1242   -1.3379   -1.2517 H   0  0  0  0  0  0  0  0  0  0  0  0
   -0.2655    0.1527    0.1744 H   0  0  0  0  0  0  0  0  0  0  0  0
    3.5873   -2.2518    2.1532 H   0  0  0  0  0  0  0  0  0  0  0  0
    4.5873   -7.0361    3.2395 H   0  0  0  0  0  0  0  0  0  0  0  0
    0.6393   -5.4612    2.4910 H   0  0  0  0  0  0  0  0  0  0  0  0
   -0.4158    0.1839    3.6643 H   0  0  0  0  0  0  0  0  0  0  0  0
    0.6288    1.5358    3.2469 H   0  0  0  0  0  0  0  0  0  0  0  0
   -0.7823    1.1699    2.2349 H   0  0  0  0  0  0  0  0  0  0  0  0
    6.0598   -5.9053    0.3413 H   0  0  0  0  0  0  0  0  0  0  0  0
    6.2542   -4.4840    1.3714 H   0  0  0  0  0  0  0  0  0  0  0  0
    6.4569   -6.1110    2.0479 H   0  0  0  0  0  0  0  0  0  0  0  0
    4.6091   -4.2514   -0.6286 H   0  0  0  0  0  0  0  0  0  0  0  0
  1  2  1  0  0  0  0
  1  6  2  0  0  0  0
  1 20  1  0  0  0  0
  2  7  2  0  0  0  0
  2 21  1  0  0  0  0
  3  6  1  0  0  0  0
  3  9  2  0  0  0  0
  3 22  1  0  0  0  0
  4  8  2  0  0  0  0
  4 10  1  0  0  0  0
  4 23  1  0  0  0  0
  5 10  2  0  0  0  0
  5 15  1  0  0  0  0
  5 24  1  0  0  0  0
  6 12  1  0  0  0  0
  7  9  1  0  0  0  0
  7 13  1  0  0  0  0
  8 11  1  0  0  0  0
  8 14  1  0  0  0  0
  9 18  1  0  0  0  0
 10 19  1  0  0  0  0
 11 15  2  0  0  0  0
 11 16  1  0  0  0  0
 12 16  1  0  0  0  0
 12 17  2  0  0  0  0
 13 25  1  0  0  0  0
 13 26  1  0  0  0  0
 13 27  1  0  0  0  0
 14 28  1  0  0  0  0
 14 29  1  0  0  0  0
 14 30  1  0  0  0  0
 16 31  1  0  0  0  0
M  END
$$$$
