23
0 1 C9ClH8IN2O2
C                     2.393065311993    -0.816220985264    -0.118012349512
C                     3.236468024444    -1.289836742565     2.103022081592
C                     0.864537319980    -0.687503830580     1.815393656141
C                     1.125561726298    -0.616048227474     0.431999615713
C                     3.437906716999    -1.172450690157     0.728383960753
C                     1.962771207971    -1.037406999665     2.621027334741
C                    -2.180595486556    -2.703795211998     0.071428011806
C                    -0.499050876894    -0.398612169167     2.387765760981
C                    -2.094347126117    -4.154615197532     0.482329168085
N                     0.111104856504    -0.220116287962    -0.505038411198
N                    -0.894160633775    -0.858743644456    -0.752639777182
O                    -3.191563946092    -2.074218320420    -0.125369018721
O                    -0.909256747236    -2.178947268881    -0.028917396687
Cl                    5.030105459169    -1.465011994439     0.060923717172
I                     1.730586848508    -1.240309708600     4.733143538370
H                     2.544771009521    -0.706346359940    -1.186363399330
H                     4.059775211152    -1.562815346739     2.752930517241
H                    -0.967918427628    -1.320245821016     2.747813659369
H                    -0.420257977757     0.280234412207     3.240729626107
H                    -1.167167437803     0.053500424553     1.655236210084
H                    -1.705791964547    -4.744933278534    -0.353431717434
H                    -1.404545184746    -4.278798779924     1.321278192836
H                    -3.088639322582    -4.510975884368     0.751267451338
