
  -OEChem-12102412493D

 31 31  0     0  0  0  0  0  0999 V2000
    6.8737    1.2705    3.5116 C   0  0  0  0  0  0  0  0  0  0  0  0
    5.6337    1.1002    2.8995 C   0  0  0  0  0  0  0  0  0  0  0  0
    6.2227    3.4363    4.3037 C   0  0  0  0  0  0  0  0  0  0  0  0
    7.1975    2.4341    4.2209 C   0  0  0  0  0  0  0  0  0  0  0  0
    4.6508    2.1054    2.9760 C   0  0  0  0  0  0  0  0  0  0  0  0
    4.9786    3.2745    3.6939 C   0  0  0  0  0  0  0  0  0  0  0  0
    2.8596    0.9438    1.6394 C   0  0  0  0  0  0  0  0  0  0  0  0
    8.5576    2.6236    4.8516 C   0  0  0  0  0  0  0  0  0  0  0  0
    1.3792    2.4403    0.2400 C   0  0  0  0  0  0  0  0  0  0  0  0
    0.4784    1.3941    2.3618 C   0  0  0  0  0  0  0  0  0  0  0  0
    0.9580   -0.0364    0.3501 C   0  0  0  0  0  0  0  0  0  0  0  0
    1.4149    1.1923    1.1498 C   0  0  0  0  0  0  0  0  0  0  0  0
    3.3858    1.9832    2.3802 N   0  0  0  0  0  0  0  0  0  0  0  0
    3.4777   -0.0865    1.3880 O   0  0  0  0  0  0  0  0  0  0  0  0
    3.5631    4.8719    3.8900 I   0  0  0  0  0  0  0  0  0  0  0  0
    7.6061    0.4703    3.4330 H   0  0  0  0  0  0  0  0  0  0  0  0
    5.4010    0.1940    2.3576 H   0  0  0  0  0  0  0  0  0  0  0  0
    6.4363    4.3501    4.8500 H   0  0  0  0  0  0  0  0  0  0  0  0
    9.2599    3.0787    4.1427 H   0  0  0  0  0  0  0  0  0  0  0  0
    8.5058    3.2765    5.7279 H   0  0  0  0  0  0  0  0  0  0  0  0
    8.9843    1.6671    5.1676 H   0  0  0  0  0  0  0  0  0  0  0  0
    0.3711    2.5697   -0.1681 H   0  0  0  0  0  0  0  0  0  0  0  0
    2.0732    2.3346   -0.6000 H   0  0  0  0  0  0  0  0  0  0  0  0
    1.6360    3.3608    0.7748 H   0  0  0  0  0  0  0  0  0  0  0  0
   -0.5559    1.4921    2.0152 H   0  0  0  0  0  0  0  0  0  0  0  0
    0.7173    2.2958    2.9356 H   0  0  0  0  0  0  0  0  0  0  0  0
    0.5271    0.5389    3.0434 H   0  0  0  0  0  0  0  0  0  0  0  0
   -0.0652    0.1183   -0.0084 H   0  0  0  0  0  0  0  0  0  0  0  0
    0.9796   -0.9390    0.9658 H   0  0  0  0  0  0  0  0  0  0  0  0
    1.6073   -0.2109   -0.5113 H   0  0  0  0  0  0  0  0  0  0  0  0
    2.7781    2.7814    2.5202 H   0  0  0  0  0  0  0  0  0  0  0  0
  1  2  1  0  0  0  0
  1  4  2  0  0  0  0
  1 16  1  0  0  0  0
  2  5  2  0  0  0  0
  2 17  1  0  0  0  0
  3  4  1  0  0  0  0
  3  6  2  0  0  0  0
  3 18  1  0  0  0  0
  4  8  1  0  0  0  0
  5  6  1  0  0  0  0
  5 13  1  0  0  0  0
  6 15  1  0  0  0  0
  7 12  1  0  0  0  0
  7 13  1  0  0  0  0
  7 14  2  0  0  0  0
  8 19  1  0  0  0  0
  8 20  1  0  0  0  0
  8 21  1  0  0  0  0
  9 12  1  0  0  0  0
  9 22  1  0  0  0  0
  9 23  1  0  0  0  0
  9 24  1  0  0  0  0
 10 12  1  0  0  0  0
 10 25  1  0  0  0  0
 10 26  1  0  0  0  0
 10 27  1  0  0  0  0
 11 12  1  0  0  0  0
 11 28  1  0  0  0  0
 11 29  1  0  0  0  0
 11 30  1  0  0  0  0
 13 31  1  0  0  0  0
M  END
$$$$
