35
0 1 C16H16INO
C                     2.537504131102    -2.077961339000     1.968807749376
C                     1.454502767873    -1.476600038709     2.613052856431
C                     6.558366036770    -6.484878186796    -0.198854296894
C                     5.545967682201    -5.643842547510     0.252343709269
C                     2.158243332225    -0.644408972070     0.065506809866
C                     6.383064719009    -3.879563192377    -1.177760697710
C                     2.894171724845    -1.669218749482     0.676981522754
C                     0.703863238213    -0.468608904788     1.995850133620
C                     7.512718181086    -6.069675438932    -1.141567479508
C                     1.067088782250    -0.044324359425     0.696821281275
C                     5.447508912174    -4.329964490499    -0.232773169654
C                     7.387337033623    -4.750688186535    -1.607019858110
C                     4.048579699953    -2.241641396038    -0.091454654551
C                    -0.465321507786     0.160148100787     2.714096493087
C                     8.592236605750    -7.016269935300    -1.602367379700
C                     0.291479041634     1.047482708385    -0.001714333075
N                     4.406320316910    -3.525100669488     0.271911269616
O                     4.612094976402    -1.608375022737    -0.982941731596
I                     8.772023028461    -3.987308535608    -3.045934107836
H                     3.117261544221    -2.825465155014     2.505168672975
H                     1.193916620830    -1.790673613712     3.621135453341
H                     6.614500350929    -7.498393840836     0.190503483627
H                     4.828640916307    -6.008745001210     0.985009586799
H                     2.463086670230    -0.322415185879    -0.925997427048
H                     6.309173292035    -2.872630846803    -1.561801358535
H                    -0.320493050205     1.238700618288     2.845924373669
H                    -1.396462288608     0.032801012361     2.149828768979
H                    -0.608268613380    -0.282940989595     3.702839271646
H                     8.544030435145    -7.179322991427    -2.684142168364
H                     9.589528321523    -6.620272298436    -1.383944046054
H                     8.492741272819    -7.985030474373    -1.105943581901
H                    -0.761414382019     0.771197609202    -0.131946686158
H                     0.306368225639     1.980358322608     0.573708224380
H                     0.708424793395     1.256305222232    -0.989690979452
H                     3.792651963397    -3.988608845726     0.928289526386
