
  -OEChem-12122420533D

 15 15  0     0  0  0  0  0  0999 V2000
   -0.5501   -0.8851   -6.0826 C   0  0  0  0  0  0  0  0  0  0  0  0
   -0.4237    0.8946   -1.9927 C   0  0  0  0  0  0  0  0  0  0  0  0
   -0.6184    0.0333   -0.8853 C   0  0  0  0  0  0  0  0  0  0  0  0
   -0.8395    0.3499   -3.1950 C   0  0  0  0  0  0  0  0  0  0  0  0
   -1.1885   -1.1670   -1.2603 C   0  0  0  0  0  0  0  0  0  0  0  0
   -0.7769    1.0416   -4.4890 C   0  0  0  0  0  0  0  0  0  0  0  0
   -1.3128    0.3208   -5.7461 C   0  0  0  0  0  0  0  0  0  0  0  0
    0.0661   -1.8374   -6.3382 N   0  0  0  0  0  0  0  0  0  0  0  0
   -0.3440    2.1805   -4.5902 O   0  0  0  0  0  0  0  0  0  0  0  0
   -1.4790   -1.2620   -2.9616 S   0  0  0  0  0  0  0  0  0  0  0  0
   -1.6697   -2.7702    0.0009 I   0  0  0  0  0  0  0  0  0  0  0  0
    0.0032    1.8901   -1.9367 H   0  0  0  0  0  0  0  0  0  0  0  0
   -0.3565    0.2752    0.1383 H   0  0  0  0  0  0  0  0  0  0  0  0
   -2.3625    0.0420   -5.5972 H   0  0  0  0  0  0  0  0  0  0  0  0
   -1.2577    1.0292   -6.5752 H   0  0  0  0  0  0  0  0  0  0  0  0
  1  7  1  0  0  0  0
  1  8  3  0  0  0  0
  2  3  1  0  0  0  0
  2  4  2  0  0  0  0
  2 12  1  0  0  0  0
  3  5  2  0  0  0  0
  3 13  1  0  0  0  0
  4  6  1  0  0  0  0
  4 10  1  0  0  0  0
  5 10  1  0  0  0  0
  5 11  1  0  0  0  0
  6  7  1  0  0  0  0
  6  9  2  0  0  0  0
  7 14  1  0  0  0  0
  7 15  1  0  0  0  0
M  END
$$$$
