15
0 1 C7H4INOS
C                    -1.380866695362     3.498569862021    -3.720002541795
C                    -0.645240372969     0.961890681148    -1.963009745183
C                    -0.680130090115     0.014077108657    -0.908600763290
C                    -1.096070701514     0.452427104903    -3.169112486366
C                    -1.161759950516    -1.206944757377    -1.335320079458
C                    -1.204589728286     1.090024031657    -4.479416020112
C                    -0.727283864834     2.552795034694    -4.628408054570
N                    -1.898311459885     4.243396702820    -2.992382929897
O                    -1.613487366727     0.494955860217    -5.468050063337
S                    -1.576574372267    -1.221327513499    -3.014109808436
I                    -1.407430835701    -2.921751811344    -0.155030560277
H                    -0.316978657346     1.986507070748    -1.827602531115
H                    -0.374476438922     0.217459458524     0.111148751753
H                     0.354905465382     2.595655488867    -4.460587656827
H                    -0.923162465978     2.845881542066    -5.662025552728
