
  -OEChem-12122420533D

 22 22  0     0  0  0  0  0  0999 V2000
    1.8035   -1.0068   -0.1358 C   0  0  0  0  0  0  0  0  0  0  0  0
    0.7291   -0.4614    0.5665 C   0  0  0  0  0  0  0  0  0  0  0  0
    2.8535   -1.6353    1.9761 C   0  0  0  0  0  0  0  0  0  0  0  0
    1.7615   -1.0947    2.6882 C   0  0  0  0  0  0  0  0  0  0  0  0
    2.8626   -1.5917    0.5670 C   0  0  0  0  0  0  0  0  0  0  0  0
    0.7107   -0.5056    1.9599 C   0  0  0  0  0  0  0  0  0  0  0  0
    4.0131   -2.2639    2.7152 C   0  0  0  0  0  0  0  0  0  0  0  0
    1.7817   -1.1638    4.1968 C   0  0  0  0  0  0  0  0  0  0  0  0
    4.0155   -2.1143   -1.4706 C   0  0  0  0  0  0  0  0  0  0  0  0
    3.9549   -2.1494   -0.0488 O   0  0  0  0  0  0  0  0  0  0  0  0
   -0.9879    0.3838    2.9168 I   0  0  0  0  0  0  0  0  0  0  0  0
    1.7975   -0.9661   -1.2186 H   0  0  0  0  0  0  0  0  0  0  0  0
   -0.0893   -0.0046    0.0201 H   0  0  0  0  0  0  0  0  0  0  0  0
    3.7096   -3.1955    3.2081 H   0  0  0  0  0  0  0  0  0  0  0  0
    4.8305   -2.4977    2.0343 H   0  0  0  0  0  0  0  0  0  0  0  0
    4.3938   -1.5971    3.4956 H   0  0  0  0  0  0  0  0  0  0  0  0
    2.5322   -0.4777    4.6076 H   0  0  0  0  0  0  0  0  0  0  0  0
    0.8183   -0.8973    4.6297 H   0  0  0  0  0  0  0  0  0  0  0  0
    2.0419   -2.1691    4.5409 H   0  0  0  0  0  0  0  0  0  0  0  0
    4.9557   -2.5977   -1.7399 H   0  0  0  0  0  0  0  0  0  0  0  0
    4.0169   -1.0837   -1.8463 H   0  0  0  0  0  0  0  0  0  0  0  0
    3.1820   -2.6670   -1.9211 H   0  0  0  0  0  0  0  0  0  0  0  0
  1  2  1  0  0  0  0
  1  5  2  0  0  0  0
  1 12  1  0  0  0  0
  2  6  2  0  0  0  0
  2 13  1  0  0  0  0
  3  4  2  0  0  0  0
  3  5  1  0  0  0  0
  3  7  1  0  0  0  0
  4  6  1  0  0  0  0
  4  8  1  0  0  0  0
  5 10  1  0  0  0  0
  6 11  1  0  0  0  0
  7 14  1  0  0  0  0
  7 15  1  0  0  0  0
  7 16  1  0  0  0  0
  8 17  1  0  0  0  0
  8 18  1  0  0  0  0
  8 19  1  0  0  0  0
  9 10  1  0  0  0  0
  9 20  1  0  0  0  0
  9 21  1  0  0  0  0
  9 22  1  0  0  0  0
M  END
$$$$
