32
0 1 C14H11IN2O2S2
C                    -0.055448865626    -0.252149114933    -1.089289115639
C                     1.282892820997    -0.295865455035    -1.517287061534
C                    -1.047538377827    -0.975024584345    -1.754295093527
C                     1.846698964991    -6.663856619408    -5.115526054157
C                     3.163349032152    -4.614038887718    -4.975555295200
C                     2.642537393502    -7.244194598137    -4.126730310251
C                     3.961415968775    -5.196881721483    -3.990478545230
C                     1.682836230689    -1.055967197107    -2.619641244998
C                     0.686094038990    -1.782536609205    -3.297325102330
C                    -0.657020312771    -1.736551702276    -2.857190059058
C                     2.113934911617    -5.354794080305    -5.521108005782
C                     3.692144298587    -6.503910225098    -3.569203832839
C                    -0.177432901775    -3.138602255691    -4.815286864807
C                     3.115805333206    -1.126431127412    -3.082197362641
N                     0.918902483596    -2.587962633376    -4.409201919660
N                    -0.269189171461    -3.994210890306    -5.899881300153
O                     0.453957178473    -5.663822680870    -7.572048143502
O                     1.795199544684    -3.494151946701    -7.367563745052
S                    -1.652870660950    -2.750430266048    -3.899643752988
S                     1.077939597997    -4.609690813207    -6.772400078291
I                     4.900737665230    -7.383779232358    -2.060548339541
H                    -0.323256757564     0.352757386914    -0.227467416685
H                     2.030300194464     0.278371491463    -0.975225174258
H                    -2.080895986474    -0.942376170816    -1.422316860518
H                     1.040930356786    -7.226541690898    -5.576781925183
H                     3.342405597779    -3.600736486803    -5.314015896122
H                     2.449699021269    -8.261517115988    -3.803238613881
H                     4.782558333849    -4.635031887427    -3.557922102797
H                     3.512063267047    -2.140255265307    -2.955989926131
H                     3.197564011312    -0.880221333447    -4.145451684488
H                     3.747437639031    -0.438834452690    -2.513889809746
H                    -1.096797923296    -4.571877878815    -6.010335083476
