
  -OEChem-12102412493D

 31 32  0     0  0  0  0  0  0999 V2000
    2.7855   -0.2440    0.6487 C   0  0  0  0  0  0  0  0  0  0  0  0
    1.7003    0.3549    1.2833 C   0  0  0  0  0  0  0  0  0  0  0  0
    1.9262   -2.4178    1.2598 C   0  0  0  0  0  0  0  0  0  0  0  0
    7.3231   -5.8160    0.1913 C   0  0  0  0  0  0  0  0  0  0  0  0
    6.5116   -5.1677   -1.9793 C   0  0  0  0  0  0  0  0  0  0  0  0
    2.9143   -1.6386    0.6431 C   0  0  0  0  0  0  0  0  0  0  0  0
    0.7005   -0.4001    1.9189 C   0  0  0  0  0  0  0  0  0  0  0  0
    6.3556   -4.9945    0.7719 C   0  0  0  0  0  0  0  0  0  0  0  0
    0.8442   -1.7961    1.8818 C   0  0  0  0  0  0  0  0  0  0  0  0
    7.4105   -5.9012   -1.2004 C   0  0  0  0  0  0  0  0  0  0  0  0
    5.4953   -4.3031   -0.1112 C   0  0  0  0  0  0  0  0  0  0  0  0
    4.1025   -2.2351   -0.0554 C   0  0  0  0  0  0  0  0  0  0  0  0
   -0.4698    0.2661    2.5939 C   0  0  0  0  0  0  0  0  0  0  0  0
    6.2463   -4.8421    2.2691 C   0  0  0  0  0  0  0  0  0  0  0  0
    5.5643   -4.3978   -1.4391 N   0  0  0  0  0  0  0  0  0  0  0  0
    4.4728   -3.4928    0.4231 N   0  0  0  0  0  0  0  0  0  0  0  0
    4.7001   -1.6440   -0.9406 O   0  0  0  0  0  0  0  0  0  0  0  0
   -0.3800   -2.8172    2.6300 Cl  0  0  0  0  0  0  0  0  0  0  0  0
    8.8792   -7.1257   -2.1249 I   0  0  0  0  0  0  0  0  0  0  0  0
    3.5423    0.3519    0.1486 H   0  0  0  0  0  0  0  0  0  0  0  0
    1.6151    1.4387    1.2888 H   0  0  0  0  0  0  0  0  0  0  0  0
    1.9610   -3.5021    1.2238 H   0  0  0  0  0  0  0  0  0  0  0  0
    8.0107   -6.3693    0.8243 H   0  0  0  0  0  0  0  0  0  0  0  0
    6.5439   -5.2099   -3.0656 H   0  0  0  0  0  0  0  0  0  0  0  0
   -1.4163   -0.0492    2.1427 H   0  0  0  0  0  0  0  0  0  0  0  0
   -0.5188   -0.0014    3.6544 H   0  0  0  0  0  0  0  0  0  0  0  0
   -0.3945    1.3530    2.5143 H   0  0  0  0  0  0  0  0  0  0  0  0
    6.2968   -3.7883    2.5646 H   0  0  0  0  0  0  0  0  0  0  0  0
    5.3029   -5.2504    2.6548 H   0  0  0  0  0  0  0  0  0  0  0  0
    7.0560   -5.3727    2.7753 H   0  0  0  0  0  0  0  0  0  0  0  0
    4.1474   -3.7309    1.3500 H   0  0  0  0  0  0  0  0  0  0  0  0
  1  2  1  0  0  0  0
  1  6  2  0  0  0  0
  1 20  1  0  0  0  0
  2  7  2  0  0  0  0
  2 21  1  0  0  0  0
  3  6  1  0  0  0  0
  3  9  2  0  0  0  0
  3 22  1  0  0  0  0
  4  8  2  0  0  0  0
  4 10  1  0  0  0  0
  4 23  1  0  0  0  0
  5 10  2  0  0  0  0
  5 15  1  0  0  0  0
  5 24  1  0  0  0  0
  6 12  1  0  0  0  0
  7  9  1  0  0  0  0
  7 13  1  0  0  0  0
  8 11  1  0  0  0  0
  8 14  1  0  0  0  0
  9 18  1  0  0  0  0
 10 19  1  0  0  0  0
 11 15  2  0  0  0  0
 11 16  1  0  0  0  0
 12 16  1  0  0  0  0
 12 17  2  0  0  0  0
 13 25  1  0  0  0  0
 13 26  1  0  0  0  0
 13 27  1  0  0  0  0
 14 28  1  0  0  0  0
 14 29  1  0  0  0  0
 14 30  1  0  0  0  0
 16 31  1  0  0  0  0
M  END
$$$$
