31
0 1 C14ClH12IN2O
C                     3.088444140860    -0.276865844712     1.838278808342
C                     1.848346298940     0.308270935218     2.087597513129
C                     1.977497786403    -2.156761561950     0.802854249386
C                     3.275703440095    -6.725614256363     1.967852420466
C                     2.727115707707    -4.949916796929     3.495432883641
C                     3.158230655542    -1.523750506070     1.208872015487
C                     0.646931205284    -0.306379116106     1.701359480978
C                     3.942566501902    -5.801108553412     1.163913701763
C                     0.752101715086    -1.545319478129     1.046751057390
C                     2.651484451900    -6.299024694447     3.144410716426
C                     3.958508589803    -4.461274354218     1.615383260503
C                     4.502643015500    -2.102635978024     0.918723489405
C                    -0.684756681176     0.342414523080     1.975179005950
C                     4.601788811007    -6.202048620755    -0.130994431767
N                     3.385294410559    -4.056779544254     2.750644434648
N                     4.620277384314    -3.493290006985     0.833114687251
O                     5.475050569824    -1.399037037369     0.665296300381
Cl                   -0.708364271397    -2.374394061421     0.512357625243
I                     1.607559798785    -7.671870777829     4.382311806159
H                     4.008400443829     0.219541030000     2.129746239829
H                     1.801713329848     1.270497045924     2.591437327361
H                     2.004942488204    -3.112689701834     0.291813418130
H                     3.230090391284    -7.767609899791     1.664770417056
H                     2.260749810486    -4.576161234954     4.403852250275
H                    -1.233289220381     0.525634998965     1.045367999832
H                    -1.317260367238    -0.301629909393     2.595006056135
H                    -0.551302766028     1.295946659682     2.491336361696
H                     4.262810881153    -5.568229521858    -0.957376323282
H                     5.693966652122    -6.109252480808    -0.075400359915
H                     4.375714178157    -7.241498720713    -0.380002858788
H                     5.515746768583    -3.767725234933     0.440724488475
