
  -OEChem-12122420533D

 32 34  0     0  0  0  0  0  0999 V2000
    1.1032    0.2300   -2.4044 C   0  0  0  0  0  0  0  0  0  0  0  0
    2.3110   -0.4879   -2.5080 C   0  0  0  0  0  0  0  0  0  0  0  0
   -0.0679   -0.2349   -2.9999 C   0  0  0  0  0  0  0  0  0  0  0  0
    2.2647   -3.5298   -7.7889 C   0  0  0  0  0  0  0  0  0  0  0  0
    0.8169   -1.5991   -7.4443 C   0  0  0  0  0  0  0  0  0  0  0  0
    3.3860   -2.7244   -7.5877 C   0  0  0  0  0  0  0  0  0  0  0  0
    1.9373   -0.7963   -7.2271 C   0  0  0  0  0  0  0  0  0  0  0  0
    2.3939   -1.6989   -3.1949 C   0  0  0  0  0  0  0  0  0  0  0  0
    1.2084   -2.1819   -3.7877 C   0  0  0  0  0  0  0  0  0  0  0  0
    0.0005   -1.4467   -3.6958 C   0  0  0  0  0  0  0  0  0  0  0  0
    0.9936   -2.9603   -7.7006 C   0  0  0  0  0  0  0  0  0  0  0  0
    3.2123   -1.3693   -7.2809 C   0  0  0  0  0  0  0  0  0  0  0  0
   -0.0648   -3.4878   -5.0395 C   0  0  0  0  0  0  0  0  0  0  0  0
    3.6829   -2.4635   -3.3457 C   0  0  0  0  0  0  0  0  0  0  0  0
    1.1314   -3.3342   -4.5576 N   0  0  0  0  0  0  0  0  0  0  0  0
   -0.4094   -4.5181   -5.9343 N   0  0  0  0  0  0  0  0  0  0  0  0
   -0.1860   -5.2765   -8.3486 O   0  0  0  0  0  0  0  0  0  0  0  0
   -1.6340   -3.2283   -7.8057 O   0  0  0  0  0  0  0  0  0  0  0  0
   -1.2614   -2.2726   -4.5923 S   0  0  0  0  0  0  0  0  0  0  0  0
   -0.4354   -4.0363   -7.6184 S   0  0  0  0  0  0  0  0  0  0  0  0
    4.9113   -0.1707   -6.8541 I   0  0  0  0  0  0  0  0  0  0  0  0
    1.0862    1.1682   -1.8565 H   0  0  0  0  0  0  0  0  0  0  0  0
    3.2074   -0.0822   -2.0457 H   0  0  0  0  0  0  0  0  0  0  0  0
   -0.9944    0.3271   -2.9279 H   0  0  0  0  0  0  0  0  0  0  0  0
    2.3769   -4.5903   -7.9929 H   0  0  0  0  0  0  0  0  0  0  0  0
   -0.1825   -1.1818   -7.3869 H   0  0  0  0  0  0  0  0  0  0  0  0
    4.3799   -3.1556   -7.6451 H   0  0  0  0  0  0  0  0  0  0  0  0
    1.8111    0.2561   -6.9971 H   0  0  0  0  0  0  0  0  0  0  0  0
    3.5917   -3.4738   -2.9343 H   0  0  0  0  0  0  0  0  0  0  0  0
    3.9442   -2.5730   -4.4031 H   0  0  0  0  0  0  0  0  0  0  0  0
    4.5041   -1.9514   -2.8383 H   0  0  0  0  0  0  0  0  0  0  0  0
    0.2585   -5.2868   -5.8522 H   0  0  0  0  0  0  0  0  0  0  0  0
  1  2  1  0  0  0  0
  1  3  2  0  0  0  0
  1 22  1  0  0  0  0
  2  8  2  0  0  0  0
  2 23  1  0  0  0  0
  3 10  1  0  0  0  0
  3 24  1  0  0  0  0
  4  6  2  0  0  0  0
  4 11  1  0  0  0  0
  4 25  1  0  0  0  0
  5  7  1  0  0  0  0
  5 11  2  0  0  0  0
  5 26  1  0  0  0  0
  6 12  1  0  0  0  0
  6 27  1  0  0  0  0
  7 12  2  0  0  0  0
  7 28  1  0  0  0  0
  8  9  1  0  0  0  0
  8 14  1  0  0  0  0
  9 10  2  0  0  0  0
  9 15  1  0  0  0  0
 10 19  1  0  0  0  0
 11 20  1  0  0  0  0
 12 21  1  0  0  0  0
 13 15  2  0  0  0  0
 13 16  1  0  0  0  0
 13 19  1  0  0  0  0
 14 29  1  0  0  0  0
 14 30  1  0  0  0  0
 14 31  1  0  0  0  0
 16 20  1  0  0  0  0
 16 32  1  0  0  0  0
 17 20  2  0  0  0  0
 18 20  2  0  0  0  0
M  END
$$$$
