
  -OEChem-12102412493D

 15 15  0     0  0  0  0  0  0999 V2000
   -0.3187    2.9377   -6.0302 C   0  0  0  0  0  0  0  0  0  0  0  0
   -0.2581    0.8098   -2.0728 C   0  0  0  0  0  0  0  0  0  0  0  0
   -0.4518   -0.0657   -0.9727 C   0  0  0  0  0  0  0  0  0  0  0  0
   -0.9883    0.4511   -3.1924 C   0  0  0  0  0  0  0  0  0  0  0  0
   -1.3333   -1.0818   -1.2803 C   0  0  0  0  0  0  0  0  0  0  0  0
   -1.0626    1.0877   -4.5116 C   0  0  0  0  0  0  0  0  0  0  0  0
   -0.2000    2.3520   -4.6939 C   0  0  0  0  0  0  0  0  0  0  0  0
   -0.3885    3.4295   -7.0802 N   0  0  0  0  0  0  0  0  0  0  0  0
   -1.7617    0.6482   -5.4113 O   0  0  0  0  0  0  0  0  0  0  0  0
   -1.9342   -0.9871   -2.8999 S   0  0  0  0  0  0  0  0  0  0  0  0
   -1.9442   -2.6221    0.0036 I   0  0  0  0  0  0  0  0  0  0  0  0
    0.3986    1.6729   -2.0337 H   0  0  0  0  0  0  0  0  0  0  0  0
    0.0283    0.0420   -0.0070 H   0  0  0  0  0  0  0  0  0  0  0  0
   -0.4908    3.1012   -3.9497 H   0  0  0  0  0  0  0  0  0  0  0  0
    0.8506    2.1060   -4.5050 H   0  0  0  0  0  0  0  0  0  0  0  0
  1  7  1  0  0  0  0
  1  8  3  0  0  0  0
  2  3  1  0  0  0  0
  2  4  2  0  0  0  0
  2 12  1  0  0  0  0
  3  5  2  0  0  0  0
  3 13  1  0  0  0  0
  4  6  1  0  0  0  0
  4 10  1  0  0  0  0
  5 10  1  0  0  0  0
  5 11  1  0  0  0  0
  6  7  1  0  0  0  0
  6  9  2  0  0  0  0
  7 14  1  0  0  0  0
  7 15  1  0  0  0  0
M  END
$$$$
