14   
torsion grid (-165,)
C        0.4506121649   -1.4310305736   -0.1630208663
C       -1.6298015886    1.1977043872   -0.8949051336
C       -0.8263209889    0.1386264266    1.0838791470
O       -0.6201573047    1.2931382480    1.8486770831
O        0.4024244572   -0.1344519805    0.4340646136
O       -1.8956298711    0.3278753106    0.2147162939
H        1.4425548890   -1.5331062275   -0.6062742506
H       -0.3127541406   -1.5413321074   -0.9418365110
H        0.3071064121   -2.2178014821    0.5900979859
H       -2.5869904831    1.3292810092   -1.4019714367
H       -0.9055583916    0.7531095758   -1.5849222705
H       -1.2578507483    2.1688915799   -0.5543425454
H       -1.1039003763   -0.7372195377    1.6884540984
H        0.3256597355    1.3187763653    2.0680695044
14   
torsion grid (-150,)
C       -0.0059823007   -1.8869843431    0.5121616235
C       -1.8156496940    1.3616198170   -1.0387914388
C       -0.7078170178    0.3513479924    0.8592921952
O        0.5954302348    0.8604279206    1.0293149651
O       -0.7237658368   -0.7631412728    0.0004777941
O       -1.6022176868    1.3069264365    0.3765978206
H       -0.1403365263   -2.6939592852   -0.2103022892
H       -0.4111623266   -2.2006530395    1.4839551263
H        1.0595891140   -1.6621916526    0.6256264358
H       -2.4497561470    2.2351505570   -1.2005752159
H       -2.3184253755    0.4617045659   -1.4018518745
H       -0.8797933247    1.4952493450   -1.5970540337
H       -1.0430590996    0.0712230245    1.8635485556
H        0.9024093903    1.1819035949    0.1641308050
14   
torsion grid (-135,)
C       -0.0114762556   -1.8759078016    0.4742107749
C       -1.8528313095    1.3242070729   -1.0510504692
C       -0.6681924399    0.3678142462    0.8490869069
O        0.6302679497    0.8324006900    1.1321451146
O       -0.6612103647   -0.7153396370   -0.0464270133
O       -1.4708589535    1.3881617266    0.3292709308
H       -0.1143338218   -2.6533343719   -0.2848383229
H       -0.4934087050   -2.2106672261    1.4030547154
H        1.0482778611   -1.6833035425    0.6696784595
H       -2.4140223181    2.2430567450   -1.2312248318
H       -2.4860663822    0.4562288676   -1.2533073916
H       -0.9857645114    1.2934281419   -1.7209499978
H       -1.0772179225    0.0634799606    1.8200978995
H        0.9534089340    1.2893021313    0.3364462616
14   
torsion grid (-120,)
C        0.0119641570   -1.8555365745    0.4668671552
C       -1.8852710314    1.2985462592   -1.0451606263
C       -0.6209459851    0.3932799998    0.8360781170
O        0.6518971580    0.8341400161    1.2356120602
O       -0.5610695519   -0.6676261356   -0.0816102281
O       -1.3327645669    1.4580927649    0.2681218211
H       -0.0402635435   -2.6132861401   -0.3167832376
H       -0.5587465222   -2.1980060686    1.3409948706
H        1.0542256542   -1.6931346497    0.7596315896
H       -2.3801387521    2.2480339583   -1.2586088846
H       -2.6176230966    0.4861346457   -1.0805300268
H       -1.1117578800    1.1114726481   -1.7963781607
H       -1.1065011658    0.0762603840    1.7692391117
H        1.0177914487    1.3453004099    0.4927330992
14   
torsion grid (-105,)
C        0.0322401374   -1.8493661460    0.4508895595
C       -1.9208108004    1.2761884638   -1.0372169303
C       -0.5882817121    0.4044427550    0.8021282980
O        0.6429360817    0.8266563867    1.3222577110
O       -0.4576705527   -0.6389807519   -0.1278869286
O       -1.2072778485    1.4999694734    0.1856474679
H        0.0438442634   -2.5915269817   -0.3491049742
H       -0.6302510954   -2.1948922894    1.2564540645
H        1.0431155522   -1.7157185625    0.8495643464
H       -2.3506709370    2.2458487580   -1.2962264680
H       -2.7258834404    0.5441627422   -0.9080602621
H       -1.2579793543    0.9387374905   -1.8381722540
H       -1.1567638884    0.0782972930    1.6861083299
H        1.0746776179    1.3456376069    0.6207499620
14   
torsion grid (-90,)
C        0.0594321730   -1.8472378375    0.4331470838
C       -1.9475666352    1.2625223142   -1.0209687715
C       -0.5494285264    0.4155402890    0.7542076714
O        0.6292102885    0.8209215662    1.3868867271
O       -0.3428005104   -0.6192923751   -0.1746552189
O       -1.0819260756    1.5255753267    0.0898383833
H        0.1441813004   -2.5783784256   -0.3726389294
H       -0.6918724586   -2.1922161344    1.1570855382
H        1.0240464662   -1.7404678631    0.9404313286
H       -2.3295233540    2.2380312919   -1.3283771904
H       -2.7887350031    0.6205735449   -0.7307656607
H       -1.4093497334    0.7940530485   -1.8482536197
H       -1.2021378920    0.0846279458    1.5777058544
H        1.1399252897    1.3175206436    0.7229082681
14   
torsion grid (-75,)
C        0.0813946783   -1.8463271289    0.4238408887
C       -1.9818717227    1.2594919650   -0.9952977341
C       -0.5248383176    0.4255362825    0.7047173147
O        0.5897951748    0.8209234025    1.4441513585
O       -0.2358480333   -0.6065597787   -0.2090079059
O       -0.9811080272    1.5345179665   -0.0093108783
H        0.2407012921   -2.5714169353   -0.3761813951
H       -0.7470082948   -2.1876754076    1.0604239915
H        0.9885510263   -1.7609365329    1.0317622668
H       -2.3175107403    2.2326754893   -1.3584877494
H       -2.8350030304    0.7262212403   -0.5544648594
H       -1.5773715043    0.6692615314   -1.8211650700
H       -1.2608982005    0.0888273056    1.4530050965
H        1.1798488791    1.2861509657    0.8246302889
14   
torsion grid (-60,)
C        0.1176515301   -1.8517962494    0.4173532184
C       -2.0148266568    1.2709976481   -0.9721153484
C       -0.5033070283    0.4253003859    0.6468719536
O        0.5382401538    0.8206794835    1.4818725918
O       -0.1296815273   -0.6086833827   -0.2389687448
O       -0.8951546671    1.5210963285   -0.1186497858
H        0.3507313898   -2.5759525661   -0.3653491694
H       -0.7703725905   -2.1918141291    0.9691505272
H        0.9616647758   -1.7747668174    1.1116653798
H       -2.2839641437    2.2331415357   -1.4113786941
H       -2.8680230111    0.8878603508   -0.3949410659
H       -1.7615860609    0.5568826965   -1.7609212820
H       -1.3115875405    0.0775918098    1.3107904726
H        1.1982622881    1.2568640022    0.9140443091
14   
torsion grid (-45,)
C        0.1783183370   -1.8648257036    0.4237658884
C       -2.0456390742    1.3077726649   -0.9507348005
C       -0.4875817231    0.4076454572    0.5830311682
O        0.4740514926    0.8147718338    1.5029729721
O       -0.0284982936   -0.6300205752   -0.2610920776
O       -0.8226539443    1.4830328181   -0.2345172055
H        0.4846887113   -2.5918538492   -0.3305995201
H       -0.7483278458   -2.2133489427    0.9026723067
H        0.9600586859   -1.7734549342    1.1861222115
H       -2.2282865888    2.2423846158   -1.4835702293
H       -2.8786493551    1.1188722230   -0.2594497867
H       -1.9711118566    0.4828393057   -1.6674745715
H       -1.3515533530    0.0467072921    1.1634215728
H        1.1885869655    1.2346524555    0.9917980789
14   
torsion grid (-30,)
C        0.2488704230   -1.8964096243    0.4467161082
C       -2.0854071014    1.3569451079   -0.9336082975
C       -0.4958317069    0.3557482755    0.5093928996
O        0.3786463449    0.7893396512    1.5038493160
O        0.0515195926   -0.6829796621   -0.2783919866
O       -0.7801540291    1.4062684298   -0.3595773489
H        0.6217388619   -2.6300002023   -0.2704670658
H       -0.6963577594   -2.2615492342    0.8747152926
H        0.9777068359   -1.7670732793    1.2545576203
H       -2.1862126454    2.2504720312   -1.5518789373
H       -2.8582774983    1.3703527015   -0.1533630859
H       -2.2110093127    0.4661247143   -1.5608453212
H       -1.3980400893   -0.0178344468    1.0169888350
H        1.1238553737    1.2226091654    1.0510999473
14   
torsion grid (-15,)
C        0.3242135471   -1.9248074748    0.4788414989
C       -2.1095051754    1.4386435498   -0.9157444920
C       -0.5197198034    0.2887063754    0.4252895642
O        0.2605692505    0.7568830167    1.4877236407
O        0.1145443603   -0.7433434304   -0.2946516179
O       -0.7543220742    1.3139580904   -0.4898206772
H        0.7650105648   -2.6615886209   -0.1951342288
H       -0.6265687311   -2.3176126651    0.8682799738
H        1.0021463086   -1.7398843182    1.3192014586
H       -2.1408092672    2.2850788396   -1.6039343641
H       -2.7758599258    1.6415246154   -0.0670091863
H       -2.4470876916    0.5367331524   -1.4419593689
H       -1.4501650341   -0.0907613425    0.8722092839
H        1.0216282269    1.2172773822    1.0917681738
14   
torsion grid (0,)
C        0.0094322980   -1.7496056476    0.0306977129
C       -1.9579723336    1.0350861718   -0.7068002461
C       -0.2326036902    0.4596105746    0.8575241401
O        0.4504721234    1.4221979974    1.5866722330
O        0.5960439480   -0.6646145987    0.7469210441
O       -0.5621713148    0.9393450018   -0.4332012980
H        0.7216411798   -2.5748683614    0.0825420721
H       -0.1709230802   -1.4844221570   -1.0164495770
H       -0.9360836615   -2.0649997474    0.4960318365
H       -2.0485043624    1.4056627653   -1.7296905554
H       -2.4543546070    1.7403262130   -0.0274146869
H       -2.4540227230    0.0575613940   -0.6379577042
H       -1.1473042267    0.2426128602    1.4285536009
H        1.2777919872    1.6064789445    1.1083655418
14   
torsion grid (15,)
C        0.0928370295   -1.8034105872    0.0575577903
C       -1.9858166541    1.1487762336   -0.6847598142
C       -0.2853698549    0.4043914195    0.8212354636
O        0.3126236931    1.4221093443    1.5570348325
O        0.6125359093   -0.6616398079    0.7395710213
O       -0.6100014626    0.8306155847   -0.4878536355
H        0.8537842436   -2.5816842115    0.1363209444
H       -0.1039682986   -1.5812437321   -0.9960127849
H       -0.8322785241   -2.1582332153    0.5347104042
H       -2.0908219601    1.4399469344   -1.7316450185
H       -2.3022384108    1.9844685540   -0.0474573161
H       -2.6294748140    0.2802255222   -0.4894966567
H       -1.1997374437    0.1433565565    1.3753239192
H        1.1377793067    1.6548520599    1.0962216551
14   
torsion grid (30,)
C        0.1709704522   -1.8678958681    0.0630767064
C       -1.9947339198    1.2428066371   -0.6761717338
C       -0.3438886151    0.3311180186    0.7732124729
O        0.1798502733    1.3980223989    1.4988851628
O        0.6173173005   -0.6761473228    0.7129689548
O       -0.6806563572    0.7032139751   -0.5473850716
H        0.9759395745   -2.5965337601    0.1733437908
H       -0.0295710681   -1.6906190682   -0.9977978742
H       -0.7360711967   -2.2601538415    0.5448465926
H       -2.1372196200    1.4677859156   -1.7347790758
H       -2.1093291711    2.1642340637   -0.0919818527
H       -2.7552602317    0.5161239914   -0.3584731201
H       -1.2472506779    0.0228698008    1.3228316672
H        1.0096831467    1.6544643794    1.0591552204
14   
torsion grid (45,)
C        0.2466631455   -1.8986782652    0.0694050626
C       -1.9939556854    1.3311372887   -0.6617481040
C       -0.4047987960    0.2763305662    0.7474087867
O        0.0539049594    1.3861133187    1.4528444647
O        0.6187842962   -0.6663992647    0.6917296390
O       -0.7754002450    0.5930497522   -0.5776453878
H        1.0937219225   -2.5743782851    0.1998066995
H        0.0396777602   -1.7592109971   -0.9955973490
H       -0.6372775157   -2.3317932332    0.5583654617
H       -2.1919308444    1.4861327964   -1.7239038862
H       -1.9080430138    2.3012252005   -0.1590097878
H       -2.8285125344    0.7692959795   -0.2187111056
H       -1.2805479262   -0.0931350198    1.3052976502
H        0.8934047574    1.6516699639    1.0370171500
14   
torsion grid (60,)
C        0.3085162990   -1.9183358598    0.0745530149
C       -1.9803015004    1.3982245869   -0.6544900416
C       -0.4688487175    0.2190251511    0.7493833956
O       -0.0642297995    1.3600167276    1.4345880944
O        0.6111057232   -0.6595359633    0.6817944533
O       -0.8869091125    0.4838151402   -0.5741172522
H        1.1954613796   -2.5408206763    0.2048196164
H        0.0855333786   -1.8025589823   -0.9899870069
H       -0.5444915094   -2.3978749359    0.5746393701
H       -2.2520662198    1.4632388175   -1.7096556627
H       -1.7006324134    2.3888188353   -0.2814639609
H       -2.8456494938    1.0343650567   -0.0818873582
H       -1.3033066315   -0.2173582270    1.3223152855
H        0.7843839277    1.6317807696    1.0416030050
14   
torsion grid (75,)
C        0.3626875350   -1.9169007047    0.0682441801
C       -1.9579272741    1.4491406211   -0.6612718074
C       -0.5307051572    0.1696385184    0.7695101534
O       -0.1682420568    1.3362676777    1.4307868610
O        0.6006595692   -0.6428258117    0.6724205288
O       -1.0151020431    0.3832961775   -0.5437021093
H        1.2890372675   -2.4836614570    0.1768832825
H        0.1092538158   -1.8129195471   -0.9906543417
H       -0.4479746557   -2.4487026187    0.5854385117
H       -2.3134773304    1.4282526049   -1.6932881693
H       -1.4986426727    2.4188720421   -0.4472082113
H       -2.8116148424    1.3069504876    0.0163114377
H       -1.3089477347   -0.3279889672    1.3700006240
H        0.6881399442    1.6107060120    1.0568329632
14   
torsion grid (90,)
C        0.4023224689   -1.9008348793    0.0516890616
C       -1.9337013721    1.4793665090   -0.6820211422
C       -0.5949357716    0.1238901378    0.8015141667
O       -0.2703612250    1.3120786011    1.4418561846
O        0.5821311277   -0.6178767626    0.6571413359
O       -1.1638334896    0.2927617144   -0.4878481162
H        1.3682043955   -2.4052204660    0.1130035073
H        0.0947805598   -1.8057730988   -0.9936265502
H       -0.3471330906   -2.4888324179    0.5992921912
H       -2.3731334883    1.3891493459   -1.6776197401
H       -1.3136198932    2.3799590382   -0.6366686179
H       -2.7376255811    1.5692046066    0.0602108520
H       -1.3086704987   -0.4230112764    1.4364467923
H        0.5922200765    1.5909501228    1.0862776797
14   
torsion grid (105,)
C        0.4278866178   -1.8667108022    0.0259370918
C       -1.9084605293    1.4871352168   -0.7105579335
C       -0.6642095347    0.0847218536    0.8404617258
O       -0.3779361203    1.2896587173    1.4692934197
O        0.5522720125   -0.5799090226    0.6371962870
O       -1.3269878832    0.2186234051   -0.4094816968
H        1.4290430369   -2.3010463121    0.0223395652
H        0.0513770640   -1.7830762067   -0.9975648722
H       -0.2435413545   -2.5117359273    0.6092072364
H       -2.4372515731    1.3489934371   -1.6561304145
H       -1.1510072130    2.2688437516   -0.8342662989
H       -2.6199698176    1.8049958857    0.0602719508
H       -1.3132571052   -0.5003777308    1.5077656772
H        0.4888592098    1.5783521914    1.1333184963
14   
torsion grid (120,)
C        0.4463811073   -1.8180099408    0.0084689733
C       -1.8634182034    1.4667603543   -0.7354439365
C       -0.7271487715    0.0537785231    0.8965092232
O       -0.4782264997    1.2688563061    1.5262366977
O        0.5199361946   -0.5326582815    0.6309554514
O       -1.4784616742    0.1615928076   -0.3031506802
H        1.4730485723   -2.1799622741   -0.0678863399
H       -0.0024611027   -1.7494149744   -0.9866741512
H       -0.1381112144   -2.5156238082    0.6237228901
H       -2.4727197021    1.3083286714   -1.6278520469
H       -0.9987256753    2.0863647852   -1.0031161634
H       -2.4537499480    1.9892904644    0.0237815519
H       -1.3178429602   -0.5624990024    1.5873140456
H        0.3887129412    1.5747608668    1.2075150151
14   
torsion grid (135,)
C        0.4348951254   -1.7508923684   -0.0165767778
C       -1.8182456469    1.4300585756   -0.7549481755
C       -0.7947758569    0.0412939521    0.9564981594
O       -0.5725403729    1.2574590461    1.5996471661
O        0.4705212562   -0.4697909810    0.6173032826
O       -1.6285322883    0.1349289702   -0.1827844287
H        1.4743111786   -2.0470695195   -0.1676268565
H       -0.0844541957   -1.7016031520   -0.9782772095
H       -0.0620362858   -2.4899432138    0.6263921446
H       -2.4832766711    1.2769037103   -1.6073007937
H       -0.8768883165    1.8641527331   -1.1168358274
H       -2.2819840261    2.1182769915   -0.0427675307
H       -1.3287543191   -0.6069087341    1.6621912398
H        0.2901067212    1.5843166642    1.2913765271
14   
torsion grid (150,)
C        0.3855467946   -1.6150557323   -0.0321513627
C       -1.8085144379    1.4124772554   -0.7859657443
C       -0.8947017867    0.0983604013    1.0165644032
O       -0.7003345949    1.3145917801    1.6746190301
O        0.3812983589   -0.3373210762    0.6089477703
O       -1.7937924739    0.1775922159   -0.0645356586
H        1.4300746784   -1.8477320838   -0.2460627781
H       -0.1910654011   -1.5936014329   -0.9619829172
H       -0.0284671727   -2.3857274614    0.6318751773
H       -2.5185191431    1.2684180309   -1.6024863342
H       -0.8236233546    1.6489404678   -1.2097277062
H       -2.1394390210    2.2369037475   -0.1484735255
H       -1.3661561939   -0.5896100104    1.7282372601
H        0.1625016853    1.6557695527    1.3841643961
14   
torsion grid (165,)
C        0.4101940910   -1.4969988419   -0.0331442208
C       -1.7268822066    1.3648092845   -0.7565655527
C       -0.8507483064    0.1637711708    1.1182128894
O       -0.6455852804    1.3766740038    1.7826789798
O        0.4076031336   -0.2188137871    0.6060656066
O       -1.8349976247    0.2395378696    0.1221923256
H        1.4414415055   -1.6886719607   -0.3342852182
H       -0.2423736615   -1.5027257194   -0.9121063458
H        0.0835903721   -2.2818575315    0.6621038222
H       -2.4968256873    1.2247415379   -1.5171969063
H       -0.7438457201    1.4031656363   -1.2420916076
H       -1.9068911008    2.2992844748   -0.2169871733
H       -1.2400351138   -0.5681034865    1.8356368655
H        0.2286343160    1.7020411414    1.5100381282
14   
torsion grid (180,)
C        0.4942047251   -1.5126203754   -0.0955171851
C       -1.6254883393    1.2416191264   -0.7886116462
C       -0.7591203621    0.1030912985    1.1183769502
O       -0.5493728517    1.3002231053    1.8159578022
O        0.4780137599   -0.2202499741    0.5136203428
O       -1.8072671989    0.2262566011    0.2093535433
H        1.4991260972   -1.6538626890   -0.4966042633
H       -0.2404577225   -1.5775607963   -0.9053825354
H        0.2839204385   -2.2977395049    0.6432628169
H       -2.5053663218    1.1851570451   -1.4313621507
H       -0.7236857247    1.0571966562   -1.3824391143
H       -1.5644091816    2.2322495017   -0.3292749790
H       -1.0718171081   -0.7072089773    1.7913703186
H        0.4117234026    1.4303064475    1.8646438413
