23   
torsion grid (-165,)
C        0.8299237230    0.7004098587    1.7513663392
C       -0.0537569852   -0.4555221822    1.2553629141
C       -1.3665502451   -0.5040962816    2.0530777785
C       -0.3127396578   -0.4272805896   -0.2750217810
H       -1.0892499985   -1.1813447724   -0.4723284644
C       -0.8546739795    0.9255741689   -0.7653470536
C        0.9260594718   -0.8306146090   -1.1026022864
C        1.3039637654   -2.3160840294   -1.0090923594
H        1.7700385700    0.7708365358    1.1946299378
H        1.0838406622    0.5602556280    2.8078860476
H        0.3163145545    1.6639112329    1.6640051939
H        0.4807016227   -1.3885864591    1.4734105749
H       -1.9876069439   -1.3527708133    1.7446399086
H       -1.1680268265   -0.6067411342    3.1259264824
H       -1.9570023662    0.4089880755    1.9173667584
H       -1.1853512375    0.8501063295   -1.8069475433
H       -0.0845297889    1.7035873246   -0.7227206857
H       -1.7090217904    1.2686904727   -0.1731738285
H        1.7795442655   -0.2144600467   -0.7927542541
H        0.7463641410   -0.5769139751   -2.1547071200
H        2.3166212570   -2.4927023575   -1.3873470003
H        0.6079014379   -2.9416916044   -1.5786156645
H        1.2930450291   -2.6730396143    0.0261776553
23   
torsion grid (-150,)
C        0.8715614790    0.6397213600    1.9177053113
C       -0.0035938698   -0.5339916187    1.4491278247
C       -1.2886107979   -0.6099035912    2.2885246680
C       -0.3127514571   -0.5091126065   -0.0720633858
H       -1.0957278054   -1.2626365024   -0.2438426132
C       -0.8682611879    0.8429805495   -0.5481093464
C        0.9027862825   -0.9178508895   -0.9310356547
C        1.2599759508   -2.4143961608   -0.8595041114
H        1.7879542056    0.7346533833    1.3260350217
H        1.1686043026    0.5002265539    2.9629836465
H        0.3330340604    1.5914429197    1.8552309859
H        0.5583575864   -1.4556278165    1.6475596505
H       -1.8971743661   -1.4763415464    2.0057126908
H       -1.0545977995   -0.6985303847    3.3554639866
H       -1.9060050830    0.2869248296    2.1639153644
H       -1.2339445691    0.7648791522   -1.5777514809
H       -0.0960027959    1.6198976250   -0.5335526923
H       -1.7016260866    1.1891386460    0.0717938858
H        1.7673901970   -0.3161797345   -0.6248928498
H        0.7109263218   -0.6431805233   -1.9751252952
H        2.3320866699   -2.5829793494   -1.0045979745
H        0.7127884175   -2.9958949831   -1.6086259535
H        1.0147741190   -2.8387358619    0.1201518373
23   
torsion grid (-135,)
C        0.9680383661    0.7563882836    1.6696454473
C        0.0755598020   -0.3858186662    1.1580219710
C       -1.1956626021   -0.4948332407    2.0145870902
C       -0.2577390618   -0.2827839726   -0.3546346985
H       -1.0403759651   -1.0298021911   -0.5537559584
C       -0.8231984034    1.0897927305   -0.7532185011
C        0.9458831300   -0.6432887588   -1.2503740492
C        1.3458382230   -2.1356772562   -1.2184333246
H        1.8769317700    0.8714615387    1.0700405485
H        1.2783860665    0.5643124999    2.7026469280
H        0.4376505572    1.7146929568    1.6605530825
H        0.6336768649   -1.3203811098    1.2995124690
H       -1.8180431306   -1.3388892976    1.6962596919
H       -0.9443002464   -0.6434288920    3.0708618135
H       -1.8057850979    0.4131901404    1.9497523894
H       -1.2017229344    1.0638030873   -1.7808750573
H       -0.0533819758    1.8679470767   -0.7080263673
H       -1.6497028740    1.4000423573   -0.1058266424
H        1.7997098947   -0.0202964048   -0.9587784551
H        0.7134776668   -0.3518662038   -2.2812007088
H        2.4283678364   -2.2700616035   -1.1281456007
H        1.0155545376   -2.6619302556   -2.1194715540
H        0.8975754929   -2.6546690767   -0.3644852768
23   
torsion grid (-120,)
C        0.9058739504    0.7143421951    1.7864600970
C       -0.0512678882   -0.3935380890    1.3185814873
C       -1.3063954192   -0.4254029949    2.2048318235
C       -0.4106659885   -0.3077636493   -0.1887717874
H       -1.1986946744   -1.0551507681   -0.3636906307
C       -0.9765457104    1.0611228104   -0.5984379512
C        0.7729421453   -0.6871977250   -1.1020636035
C        1.2306841287   -2.1608529556   -0.9862760226
H        1.8126216475    0.7622541722    1.1747123859
H        1.2174853540    0.5371494208    2.8217683211
H        0.4270793362    1.6989927034    1.7535022226
H        0.4648165363   -1.3509489385    1.4670692108
H       -1.9841633606   -1.2330199169    1.9053212031
H       -1.0385269709   -0.5855538068    3.2553343878
H       -1.8643066174    0.5161524597    2.1514780174
H       -1.3567194262    1.0263330440   -1.6252894103
H       -0.2068336115    1.8397750914   -0.5614907117
H       -1.8021781311    1.3766463480    0.0471729697
H        1.6132093320   -0.0125685932   -0.9017829815
H        0.4765831836   -0.4805327741   -2.1370110084
H        2.2741696159   -2.2470534330   -0.6675123961
H        1.1471522794   -2.6811986179   -1.9457563413
H        0.6238231517   -2.7210054106   -0.2673894519
23   
torsion grid (-105,)
C        0.6007646147    0.7042109944    1.9811484429
C       -0.3349220535   -0.4428980939    1.5682148645
C       -1.5861737408   -0.4608515849    2.4604032623
C       -0.6977253039   -0.4367948940    0.0598154022
H       -1.4204391958   -1.2532272725   -0.0867669963
C       -1.3742438591    0.8645130461   -0.3988641460
C        0.5113036663   -0.7514422128   -0.8438980147
C        1.1514034608   -2.1365904950   -0.6042515781
H        1.5142474113    0.7283512954    1.3782007809
H        0.9017704570    0.5929399260    3.0287467594
H        0.1093619474    1.6785206496    1.8847692224
H        0.2013463872   -1.3818335658    1.7572025392
H       -2.2618099602   -1.2780950426    2.1825724186
H       -1.3120123726   -0.5967136548    3.5126853719
H       -2.1484784275    0.4767608628    2.3897205989
H       -1.7165668528    0.7728234305   -1.4355822366
H       -0.6819071682    1.7124983858   -0.3581469751
H       -2.2460210307    1.1145264228    0.2135493994
H        1.2657628443    0.0373248775   -0.7438354680
H        0.1638415027   -0.6920073453   -1.8823865678
H        2.0996385080   -2.0670513109   -0.0616165459
H        1.3792809324   -2.6320480117   -1.5540942374
H        0.4868456060   -2.8038738170   -0.0456099625
23   
torsion grid (-90,)
C        0.6930021386    0.6382708087    1.9809600174
C       -0.3410945215   -0.4204918228    1.5671975818
C       -1.5961203309   -0.3176671943    2.4482113652
C       -0.6872795648   -0.3945887897    0.0554261537
H       -1.4265109735   -1.1942808328   -0.1020406817
C       -1.3316670577    0.9229662433   -0.4031337326
C        0.5208520690   -0.7305147938   -0.8415996237
C        1.1833519637   -2.0879770046   -0.5462283627
H        1.6191001542    0.5569998218    1.4029461100
H        0.9549029212    0.5234541613    3.0386725402
H        0.3041115099    1.6540690246    1.8500781850
H        0.1044658009   -1.4035435919    1.7664500998
H       -2.3521690743   -1.0545714411    2.1529364303
H       -1.3475248442   -0.4970732494    3.5002984150
H       -2.0548442132    0.6752414183    2.3875154910
H       -1.6211629294    0.8597305116   -1.4580051793
H       -0.6377550267    1.7651602382   -0.3062098355
H       -2.2323038244    1.1630436239    0.1698607553
H        1.2671402730    0.0709555572   -0.7858226436
H        0.1637748817   -0.7281303284   -1.8791242249
H        1.9805307353   -2.0044943501    0.1998222183
H        1.6516754582   -2.4941796108   -1.4496942194
H        0.4555207500   -2.8275062506   -0.1948870207
23   
torsion grid (-75,)
C        0.8336393826    0.5984851108    1.8687599002
C       -0.2481134389   -0.4190257293    1.4739740461
C       -1.4831059992   -0.2659876808    2.3760050600
C       -0.6189969171   -0.3812358827   -0.0314960767
H       -1.3651152850   -1.1765225961   -0.1797650286
C       -1.2680398398    0.9416209914   -0.4693511109
C        0.5686821474   -0.7108199805   -0.9581658630
C        1.2621931452   -2.0495117021   -0.6717341955
H        1.7524875009    0.4691466294    1.2880936890
H        1.0951351081    0.4870192526    2.9269498727
H        0.4889982115    1.6284997415    1.7252248999
H        0.1595667070   -1.4191910111    1.6680855338
H       -2.2775787038   -0.9638256435    2.0866345488
H       -1.2258316353   -0.4675843746    3.4219440781
H       -1.8955117913    0.7477969662    2.3323175740
H       -1.5632417338    0.8911939779   -1.5233234846
H       -0.5746366553    1.7835617040   -0.3658658769
H       -2.1658198612    1.1731346928    0.1113141018
H        1.3057549558    0.1012533770   -0.9240112983
H        0.1896405690   -0.7227911154   -1.9880975653
H        1.8901398854   -2.0044901853    0.2239913517
H        1.9154595349   -2.3327989239   -1.5043937309
H        0.5324879650   -2.8559944650   -0.5338033293
23   
torsion grid (-60,)
C        0.8622116244    0.5803993180    1.8501804128
C       -0.2379459002   -0.4252590108    1.4764604580
C       -1.4628743398   -0.2435280654    2.3871447688
C       -0.6230174629   -0.3999789399   -0.0260504072
H       -1.3642305341   -1.2024390534   -0.1612404752
C       -1.2917743023    0.9145001331   -0.4614247602
C        0.5552544143   -0.7142839375   -0.9709836095
C        1.2734656322   -2.0435397824   -0.7098113285
H        1.7813171188    0.4165847509    1.2788732041
H        1.1154972065    0.4920884567    2.9125628449
H        0.5396729992    1.6130372272    1.6771017239
H        0.1551436170   -1.4287953908    1.6814585686
H       -2.2743795518   -0.9248081227    2.1056548954
H       -1.2014957568   -0.4484977849    3.4313686711
H       -1.8537712174    0.7787152280    2.3445302863
H       -1.5901823917    0.8600875874   -1.5142267868
H       -0.6093888409    1.7658203322   -0.3606725539
H       -2.1903743307    1.1340934311    0.1223565508
H        1.2818499067    0.1073228323   -0.9292477799
H        0.1721451609   -0.7173527897   -1.9993870494
H        1.7016514722   -2.0918770476    0.2960362769
H        2.0872094799   -2.1962205368   -1.4267294940
H        0.5812934238   -2.8887723476   -0.8076564496
23   
torsion grid (-45,)
C        0.5416176562    0.7274761615    2.3978787606
C       -0.3239217450   -0.4910430520    2.0385267901
C       -1.5765594319   -0.5369549160    2.9278254423
C       -0.6868952248   -0.5725183764    0.5312808122
H       -1.4451658676   -1.3641072032    0.4367873920
C       -1.3127530573    0.7256910652   -0.0046034333
C        0.5080843027   -0.9870469258   -0.3529481364
C        0.9427912320   -2.4513723594   -0.1946098724
H        1.4372090270    0.7977812490    1.7720225820
H        0.8735129044    0.6655704225    3.4401615307
H       -0.0175580080    1.6629218187    2.2882228842
H        0.2632852482   -1.3868593634    2.2763525994
H       -2.1794376643   -1.4280653738    2.7191360914
H       -1.3020143166   -0.5591113563    3.9885261698
H       -2.2140045226    0.3411697006    2.7749757674
H       -1.7103494542    0.5703704522   -1.0134480141
H       -0.5721873453    1.5307046117   -0.0656808539
H       -2.1374929346    1.0776716359    0.6232978616
H        1.3568991159   -0.3246982651   -0.1404598130
H        0.2504064639   -0.8074966329   -1.4040408193
H        0.9946168227   -2.7552777217    0.8557138133
H        1.9220784556   -2.6329713678   -0.6493095390
H        0.2229262949   -3.1216909079   -0.6793529785
23   
torsion grid (-30,)
C        0.6334769814    0.6587973193    2.6234951881
C       -0.2286683712   -0.5714707008    2.2975707086
C       -1.4420467360   -0.6369901693    3.2383312214
C       -0.6536752387   -0.6542753940    0.8066466524
H       -1.4169191279   -1.4441403546    0.7430694679
C       -1.2972989431    0.6443052102    0.2940928415
C        0.5080791137   -1.0744358578   -0.1183595388
C        0.9277124622   -2.5501600015    0.0180696555
H        1.4983020533    0.7461914823    1.9577234302
H        1.0136330399    0.5969655189    3.6491456539
H        0.0554836184    1.5858313155    2.5445516127
H        0.3822043113   -1.4589130196    2.5069138615
H       -2.0376334190   -1.5387889240    3.0563829274
H       -1.1240103564   -0.6512719247    4.2869575853
H       -2.1003031287    0.2296650580    3.1094513358
H       -1.7369643848    0.4878132641   -0.6969643597
H       -0.5577934954    1.4471569735    0.2005789454
H       -2.0941714732    0.9998900163    0.9552619014
H        1.3682720413   -0.4234835905    0.0813676370
H        0.2267923426   -0.8759472192   -1.1593251035
H        0.7547306994   -2.9335237361    1.0288173169
H        1.9823536695   -2.7046331998   -0.2299774399
H        0.3358915562   -3.1838471743   -0.6525675558
23   
torsion grid (-15,)
C        0.6540612534    0.8132681883    2.2363486025
C       -0.2228781864   -0.3906582576    1.8562751046
C       -1.4372594112   -0.4837547635    2.7933488289
C       -0.6471269526   -0.4022244647    0.3630237437
H       -1.4127032064   -1.1857481439    0.2616443905
C       -1.2840108633    0.9208638941   -0.0911759753
C        0.5146461255   -0.7846460480   -0.5775882329
C        0.9694781941   -2.2575983919   -0.4687405578
H        1.5215837156    0.9176948561    1.5765329295
H        1.0309457806    0.7027004672    3.2591081736
H        0.0882887017    1.7502943394    2.1960383241
H        0.3775082630   -1.2939446575    2.0250072940
H       -2.0448176863   -1.3680526854    2.5696969260
H       -1.1196946233   -0.5513424174    3.8400393132
H       -2.0839162019    0.3966495269    2.7055000253
H       -1.7209722955    0.8121720674   -1.0898230740
H       -0.5414088148    1.7244898932   -0.1449993700
H       -2.0817809369    1.2483114343    0.5832465796
H        1.3604426340   -0.1153945428   -0.3798660831
H        0.2130042299   -0.5734226693   -1.6099467438
H        0.5820718469   -2.7384096020    0.4353759693
H        2.0590973024   -2.3571170613   -0.4560664890
H        0.5984404994   -2.8481214232   -1.3132329422
23   
torsion grid (0,)
C        0.6128636159    0.7680574497    2.3433804469
C       -0.3291337102   -0.3985611151    2.0056199924
C       -1.5280785354   -0.4133679794    2.9669363091
C       -0.7793223410   -0.4230573330    0.5205548962
H       -1.5488443964   -1.2051878700    0.4415765613
C       -1.4171432752    0.8973599538    0.0605401997
C        0.3614456721   -0.8229185986   -0.4374989885
C        0.8768541320   -2.2709848305   -0.2587813049
H        1.4797361245    0.8055223609    1.6756555350
H        0.9910290037    0.6689889323    3.3668730216
H        0.0974017569    1.7323336168    2.2775930302
H        0.2292677886   -1.3269188222    2.1827641055
H       -2.1924720320   -1.2603663716    2.7608112657
H       -1.1933553772   -0.4959442841    4.0071757355
H       -2.1219816614    0.5040961179    2.8883608365
H       -1.8557765663    0.7834281736   -0.9368452352
H       -0.6750269666    1.7009981996    0.0009592815
H       -2.2140050748    1.2277957029    0.7342356291
H        1.1877435633   -0.1107870052   -0.3309558234
H       -0.0020940056   -0.6922454127   -1.4634165253
H        0.3394887347   -2.7970895424    0.5372719276
H        1.9383769410   -2.3007624440    0.0069204362
H        0.7553700869   -2.8589003382   -1.1737119579
23   
torsion grid (15,)
C        0.0359239826    0.3968146097    2.6610744887
C       -0.8660051510   -0.7528316285    2.1849174534
C       -2.2279730286   -0.6941830987    2.8945703326
C       -1.0179689038   -0.8258276646    0.6425769100
H       -1.7367915338   -1.6339104980    0.4412613417
C       -1.5874110436    0.4613137997    0.0256404312
C        0.2940039154   -1.2163138987   -0.0671649874
C        0.8535432420   -2.6005316640    0.3282387096
H        1.0237484417    0.3680012748    2.1899451277
H        0.1872184417    0.3395422974    3.7447115424
H       -0.4102392733    1.3737387104    2.4452623628
H       -0.3875963714   -1.6900242445    2.4974897766
H       -2.8815505207   -1.5122934319    2.5704166420
H       -2.1048120607   -0.7747419471    3.9805049287
H       -2.7488499540    0.2489331832    2.6958564172
H       -1.7883562280    0.3174163678   -1.0417162936
H       -0.8823879238    1.2949903858    0.1149795538
H       -2.5265109308    0.7651100652    0.4982227431
H        1.0506466374   -0.4402636867    0.0959358070
H        0.0943720693   -1.2050794157   -1.1456144710
H        0.1026202204   -3.2032930844    0.8508303779
H        1.7023673850   -2.5137465235    1.0152048420
H        1.1976086116   -3.1660991365   -0.5426729621
23   
torsion grid (30,)
C        0.2741638818    0.2870068834    2.5654903613
C       -0.7404970773   -0.7579882808    2.0755940515
C       -2.0816033991   -0.5876394277    2.8066022041
C       -0.9161899396   -0.7798624076    0.5345280167
H       -1.6580775252   -1.5643707731    0.3228181369
C       -1.4646008130    0.5368616760   -0.0374697972
C        0.3723661438   -1.1809523295   -0.2109887326
C        0.9538377407   -2.5456598642    0.1989652122
H        1.2557503962    0.1580451024    2.0983395908
H        0.4129700642    0.2057353787    3.6493034987
H       -0.0653495150    1.3073422846    2.3561610205
H       -0.3510854766   -1.7444613993    2.3581078947
H       -2.8235417408   -1.3131170167    2.4530195253
H       -1.9570905928   -0.7355884393    3.8852411967
H       -2.4985571790    0.4149794973    2.6621965784
H       -1.6387624903    0.4419171920   -1.1150401776
H       -0.7593044931    1.3626773750    0.1065485612
H       -2.4145126658    0.8229455704    0.4239363205
H        1.1328545842   -0.3990041405   -0.0981476457
H        0.1321877091   -1.2038261408   -1.2815291138
H        0.1642587746   -3.2336471090    0.5227036669
H        1.6431626451   -2.4519824087    1.0456070478
H        1.5066876953   -3.0133267869   -0.6214144574
23   
torsion grid (45,)
C        0.4168794733    0.2344596139    2.4793281695
C       -0.6433523021   -0.7719319734    2.0055177760
C       -1.9623509763   -0.5593247554    2.7652912267
C       -0.8519466259   -0.7791963748    0.4686197937
H       -1.5996240912   -1.5613991950    0.2679447573
C       -1.4149072397    0.5421730464   -0.0790348308
C        0.4173481589   -1.1694176531   -0.3152723187
C        1.0383547966   -2.5142178414    0.0860584474
H        1.3887097556    0.0623074223    2.0059165524
H        0.5606061283    0.1565005648    3.5627677352
H        0.1174468302    1.2660651787    2.2639327730
H       -0.2845212361   -1.7733535875    2.2749172033
H       -2.7402541345   -1.2477642764    2.4148395075
H       -1.8228963352   -0.7310381852    3.8385466274
H       -2.3403409341    0.4617766282    2.6459420436
H       -1.5995383224    0.4609257874   -1.1559910471
H       -0.7133068352    1.3705487662    0.0689449239
H       -2.3617889068    0.8157380586    0.3956975454
H        1.1688692904   -0.3746338443   -0.2288398012
H        0.1489808276   -1.2074743446   -1.3788648924
H        0.2699248689   -3.2897057460    0.1893372731
H        1.5625966996   -2.4512715768    1.0454903179
H        1.7639108210   -2.8527221621   -0.6609730268
23   
torsion grid (60,)
C        0.4323966984    0.2274343894    2.4775850271
C       -0.6480734257   -0.7632911300    2.0166921019
C       -1.9633480820   -0.5120458600    2.7715199926
C       -0.8566949361   -0.7894352447    0.4798140464
H       -1.6035843017   -1.5753610718    0.2899481243
C       -1.4266688621    0.5242709804   -0.0804193416
C        0.4116937782   -1.1770739394   -0.3080334867
C        1.0516501460   -2.5128869999    0.0882817647
H        1.4053071873    0.0171838159    2.0223312720
H        0.5600049884    0.1749600027    3.5645863387
H        0.1633164528    1.2604101787    2.2308250069
H       -0.3123285415   -1.7677038896    2.3032468463
H       -2.7576038704   -1.1831216842    2.4240593030
H       -1.8301378013   -0.6801250644    3.8461145284
H       -2.3152554856    0.5173645329    2.6446729583
H       -1.6038674436    0.4342544366   -1.1578813309
H       -0.7322607705    1.3590639467    0.0660767197
H       -2.3785196445    0.7939742246    0.3862457266
H        1.1553183784   -0.3751730314   -0.2151193395
H        0.1496545740   -1.2148216972   -1.3730563454
H        0.3527637350   -3.3453422517   -0.0568002256
H        1.3803472527   -2.5245267513    1.1317498045
H        1.9312353830   -2.7162970393   -0.5326748282
23   
torsion grid (75,)
C        0.4155433189    0.4601134498    2.4055001762
C       -0.4614211628   -0.7221847980    1.9626179837
C       -1.7731265842   -0.7431538479    2.7634226875
C       -0.7217947550   -0.7648374536    0.4328921209
H       -1.4855356597   -1.5399585003    0.2701979324
C       -1.2868622990    0.5558960016   -0.1155308884
C        0.5223535240   -1.1825473448   -0.3792069387
C        0.9394765089   -2.6506475594   -0.2088696815
H        1.3570137473    0.5083207832    1.8487685653
H        0.6668983038    0.3715327588    3.4682052935
H       -0.1021631125    1.4159911889    2.2710818308
H        0.0786788231   -1.6413337399    2.2218384599
H       -2.3916417104   -1.6056800297    2.4902723503
H       -1.5725995244   -0.8021200177    3.8391794532
H       -2.3670005320    0.1616945497    2.5924283547
H       -1.6138594539    0.4300753924   -1.1534327442
H       -0.5308480760    1.3487475913   -0.1052276738
H       -2.1485282417    0.9086222196    0.4600600678
H        1.3610607255   -0.5281817430   -0.1099090002
H        0.3301860958   -0.9927795047   -1.4424263517
H        0.2640685067   -3.3173816408   -0.7571133868
H        0.9532403999   -2.9640493648    0.8392734898
H        1.9447784679   -2.8185902065   -0.6115184703
23   
torsion grid (90,)
C        0.4177357983    0.4419773433    2.5178229343
C       -0.4372120055   -0.7656095466    2.1008628342
C       -1.7273752947   -0.8192295668    2.9340626313
C       -0.7351334194   -0.8191629632    0.5781700259
H       -1.5051755528   -1.5922919784    0.4379237809
C       -1.3073962524    0.4993991148    0.0330047864
C        0.4930124018   -1.2502614184   -0.2512810573
C        0.8775183272   -2.7340817996   -0.0987109291
H        1.3373818359    0.5210029593    1.9288840342
H        0.7083800272    0.3579707404    3.5708060276
H       -0.1335390808    1.3816865820    2.4049505893
H        0.1361742289   -1.6683039919    2.3477311928
H       -2.3217523863   -1.7068177507    2.6892146214
H       -1.5002306778   -0.8530355184    4.0056242520
H       -2.3561393956    0.0617221412    2.7620810347
H       -1.6636318677    0.3657909996   -0.9942500071
H       -0.5472085705    1.2880820261    0.0153777586
H       -2.1508866641    0.8621767595    0.6292605413
H        1.3438506238   -0.6164010270    0.0273283873
H        0.3027449302   -1.0364345643   -1.3096628222
H        0.3643140752   -3.3544493361   -0.8414867636
H        0.6411367414   -3.1266555055    0.8948752951
H        1.9510327002   -2.8838205400   -0.2584093199
23   
torsion grid (105,)
C        0.5912650255    0.5229510619    2.2885621684
C       -0.2731071965   -0.6593008390    1.8216075831
C       -1.5419465357   -0.7657339922    2.6820462197
C       -0.6076731760   -0.6229280232    0.3061679983
H       -1.3709424045   -1.3967017718    0.1361352248
C       -1.2073833055    0.7184852519   -0.1449667811
C        0.6054278806   -0.9871368916   -0.5751171294
C        1.0457739873   -2.4657097149   -0.4820655140
H        1.4977233096    0.6364123829    1.6849895387
H        0.9051233704    0.3785918269    3.3282522588
H        0.0380688276    1.4671881315    2.2422790850
H        0.3072460466   -1.5739895349    1.9989804734
H       -2.1437796980   -1.6360121586    2.3964900546
H       -1.2877849622   -0.8676798413    3.7431718918
H       -2.1735536260    0.1242868923    2.5826245582
H       -1.5837965523    0.6434627948   -1.1709920378
H       -0.4576611275    1.5171540915   -0.1294413738
H       -2.0423586507    1.0322093032    0.4897490314
H        1.4417257562   -0.3294600067   -0.3101951250
H        0.3648991755   -0.7454195959   -1.6168053896
H        0.7465578884   -3.0285980107   -1.3721499116
H        0.6132718431   -2.9708466227    0.3872353310
H        2.1333977099   -2.5618365025   -0.3999342057
23   
torsion grid (120,)
C        0.4940454131    0.6773885478    1.9953848372
C       -0.4117960190   -0.4704000858    1.5216234427
C       -1.7105901776   -0.5004093318    2.3426250240
C       -0.6935168233   -0.4495203186   -0.0044180992
H       -1.4533418993   -1.2228101569   -0.1910874962
C       -1.2692865107    0.8883981574   -0.4946851879
C        0.5449416758   -0.8318914296   -0.8404589244
C        1.0316656792   -2.2876019833   -0.6445758283
H        1.4303772719    0.7248485185    1.4299178323
H        0.7547308649    0.5466028076    3.0514634700
H       -0.0045649404    1.6480254146    1.8998826030
H        0.1173921698   -1.4086335697    1.7330590506
H       -2.3533728698   -1.3348213478    2.0394604601
H       -1.4945505242   -0.6153012008    3.4108401082
H       -2.2860111703    0.4246197393    2.2249696196
H       -1.5941026823    0.8060412157   -1.5376992882
H       -0.5211917685    1.6873195781   -0.4478439513
H       -2.1348924966    1.2062868808    0.0949737774
H        1.3571330143   -0.1283408128   -0.6243772769
H        0.2978208165   -0.6720229343   -1.8964447079
H        1.0090848137   -2.8485161164   -1.5841348929
H        0.3944721779   -2.8336356044    0.0594180847
H        2.0530402144   -2.3373043663   -0.2549840435
23   
torsion grid (135,)
C        0.6093094990    0.7117757643    1.7206609726
C       -0.3092789585   -0.4125268190    1.2166638118
C       -1.6212601231   -0.4314006162    2.0168529622
C       -0.5631784916   -0.3691070129   -0.3132520817
H       -1.2819121176   -1.1734946965   -0.5294061129
C       -1.1917410910    0.9498949635   -0.7893071010
C        0.7038344059   -0.6778207007   -1.1358787882
C        1.3124124391   -2.0744995600   -0.8829709785
H        1.5645933708    0.7342038457    1.1863303490
H        0.8314735955    0.5749458818    2.7847913323
H        0.1396228537    1.6951713447    1.6094581652
H        0.1997005203   -1.3630371033    1.4224150660
H       -2.2862550710   -1.2319694598    1.6727134203
H       -1.4248428910   -0.5947771793    3.0825175905
H       -2.1643730136    0.5159373174    1.9282112503
H       -1.4584512964    0.8855568040   -1.8500175324
H       -0.4961041653    1.7888668072   -0.6786097743
H       -2.1034024078    1.1957876030   -0.2361970674
H        1.4562544077    0.1011651083   -0.9664924064
H        0.4317735788   -0.5928739704   -2.1949266682
H        1.5828199797   -2.5696512985   -1.8209349599
H        0.5881723069   -2.7347673034   -0.3915456183
H        2.2000460693   -2.0394725076   -0.2442522255
23   
torsion grid (150,)
C        1.0688883776    0.5717666224    1.4459742534
C        0.0201373815   -0.4158158158    0.9109005859
C       -1.2695630241   -0.3316192238    1.7425286288
C       -0.2559222226   -0.2678709906   -0.6082603456
H       -1.0094421621   -1.0301163879   -0.8570839995
C       -0.8414479588    1.0995612883   -0.9943065607
C        0.9817171535   -0.5736924523   -1.4752550387
C        1.5926442230   -1.9688611044   -1.2549706304
H        2.0190770680    0.4947294570    0.9078741238
H        1.2737943696    0.3750399960    2.5042033540
H        0.7227498210    1.6082939422    1.3684358957
H        0.4229258289   -1.4264367696    1.0559328888
H       -2.0363732775   -1.0151877111    1.3596919966
H       -1.0754557126   -0.5985490121    2.7874778791
H       -1.6904308025    0.6797121537    1.7383461613
H       -1.0861005396    1.1224350359   -2.0620973169
H       -0.1285067783    1.9099067165   -0.8065577833
H       -1.7590623607    1.3259008140   -0.4431406579
H        1.7451790601    0.1998279549   -1.3284659277
H        0.6722706118   -0.4847525916   -2.5241896605
H        2.0673822975   -2.3428103182   -2.1680049924
H        0.8141661028   -2.6964424897   -0.9944042901
H        2.3332650115   -1.9817981288   -0.4494110737
23   
torsion grid (165,)
C        1.1892165179    0.5277428176    1.3538284122
C        0.0984314603   -0.4258051361    0.8416819311
C       -1.1684843307   -0.3036328145    1.7032656563
C       -0.2085740085   -0.2663441168   -0.6701944328
H       -0.9671281286   -1.0276198275   -0.9072682683
C       -0.8062899873    1.1027067680   -1.0326702663
C        1.0080563285   -0.5587198261   -1.5713901039
C        1.6555681925   -1.9338608156   -1.3597150168
H        2.1278664365    0.4141862785    0.8022746489
H        1.4030066964    0.3315403549    2.4104119631
H        0.8782750944    1.5752103311    1.2735634914
H        0.4711870979   -1.4491002548    0.9764266501
H       -1.9685463803   -0.9541757935    1.3309859834
H       -0.9603076922   -0.5899172983    2.7403356172
H       -1.5515473090    0.7223864717    1.7199372177
H       -1.0578895813    1.1389598282   -2.0984687386
H       -0.0976967005    1.9153603606   -0.8380816091
H       -1.7219005619    1.3147438874   -0.4728011547
H        1.7622041591    0.2286119864   -1.4473895946
H        0.6720224726   -0.4842103535   -2.6135451033
H        2.3259962009   -2.1823105354   -2.1894710496
H        0.8941577569   -2.7220329817   -1.3127204672
H        2.2371659900   -1.9812934587   -0.4336895861
23   
torsion grid (180,)
C        1.2057059044    0.5202823235    1.3477028903
C        0.0962554680   -0.4200875262    0.8515432740
C       -1.1666384637   -0.2613713690    1.7133974079
C       -0.2124538688   -0.2779749378   -0.6620135074
H       -0.9709574992   -1.0428430970   -0.8884043802
C       -0.8169066390    1.0858793224   -1.0350953973
C        1.0010786157   -0.5676565718   -1.5694267937
C        1.6640062296   -1.9354284375   -1.3678281215
H        2.1467011104    0.3670157705    0.8100727622
H        1.4036351365    0.3494122971    2.4117682599
H        0.9225180189    1.5725282015    1.2340629110
H        0.4486639726   -1.4479025427    1.0032838229
H       -1.9828396908   -0.8945416691    1.3462101034
H       -0.9638045837   -0.5463949092    2.7518406460
H       -1.5246067482    0.7736846956    1.7243969498
H       -1.0649274793    1.1140846540   -2.1019092473
H       -0.1134972772    1.9037828100   -0.8432660028
H       -1.7355920297    1.2965136022   -0.4799662767
H        1.7506810526    0.2227325178   -1.4352249627
H        0.6699630562   -0.4861905690   -2.6125822528
H        2.5131702758   -2.0585133845   -2.0488955829
H        0.9577726136   -2.7532692284   -1.5527635476
H        2.0525676639   -2.0566340861   -0.3517467423
