13   
torsion grid (-165,)
C        0.4044630489    0.0716090222   -1.9976020286
C        0.5871085315   -0.3052185936   -0.5628848732
C        0.2096457814    0.8167187403    0.3988698204
N       -0.7722658437    0.5405053392   -2.5073446296
N        1.3599327948    0.0082778080   -2.9228986931
N       -0.5672165908    0.7722666639   -3.7815065934
N        0.6994950712    0.4247943708   -4.0080327627
Br       1.4220705344    2.3747783404    0.2174111500
H        1.6202988677   -0.6210895244   -0.4064091457
H       -0.0623948881   -1.1607355116   -0.3344257995
H       -0.7907381924    1.1990654521    0.2041850324
H        0.2970019161    0.4970004901    1.4361102726
H        1.1910208578    0.7049384737   -4.8504962442
13   
torsion grid (-150,)
C        0.3603763800   -0.0038959825   -1.9973540403
C        0.5434132315   -0.3795173653   -0.5626186759
C        0.1503362293    0.7388101015    0.3968870040
N       -0.8174902330    0.4869191403   -2.5003225591
N        1.3015633525   -0.0826055310   -2.9275428211
N       -0.6268611015    0.6994025763   -3.7728038191
N        0.6356866238    0.3185049951   -4.0261737142
Br       1.3588160403    2.3016207075    0.2307767958
H        1.5798329986   -0.6834746438   -0.4039618493
H       -0.0963177244   -1.2429051858   -0.3358535937
H       -0.8493005304    1.1178414229    0.1922149116
H        0.2275520534    0.4174984987    1.4343432282
H        1.1718265050    0.7675597755   -4.7635644143
13   
torsion grid (-135,)
C        1.1742165021   -0.2524457982   -1.9406658045
C        1.4573541288   -0.7039583052   -0.5447919392
C        1.6421795093    0.4577597826    0.4255182534
N        0.1892383268    0.6636120513   -2.2468677470
N        1.8268817132   -0.6488126899   -3.0149745065
N        0.1977837450    0.8133994551   -3.5331948810
N        1.1670575864   -0.0058781957   -4.0157600517
Br       3.2652215099    1.5124471545   -0.0028223772
H        2.3367296840   -1.3507521681   -0.5523667458
H        0.6080802319   -1.2994904383   -0.1835873439
H        0.8139142016    1.1625369631    0.3806019034
H        1.7826314809    0.1043460729    1.4456553330
H        1.8036467960    0.3636650417   -4.7201815140
13   
torsion grid (-120,)
C        1.1637964789   -0.2598102887   -1.9483903577
C        1.4483350970   -0.6929762853   -0.5472570213
C        1.6261812333    0.4826186759    0.4075319857
N        0.1816461314    0.6746457613   -2.2569593416
N        1.7953331416   -0.6731021196   -3.0176320450
N        0.1661135738    0.7992839176   -3.5345475267
N        1.1411961511   -0.0310066201   -4.0480940441
Br       3.2396622030    1.5434789264   -0.0405121404
H        2.3313345741   -1.3347415094   -0.5478730894
H        0.6020346944   -1.2889131913   -0.1795405353
H        0.7927264329    1.1807692771    0.3560931985
H        1.7719058261    0.1434963916    1.4316862030
H        1.8576486424    0.4673571257   -4.5812039889
13   
torsion grid (-105,)
C        1.1618771267   -0.2964660395   -1.9557661885
C        1.4477464297   -0.7172037219   -0.5513946420
C        1.6577115642    0.4689880499    0.3840719407
N        0.1736718330    0.6486865499   -2.2620635310
N        1.7812725062   -0.7126778809   -3.0212628675
N        0.1374631681    0.7594497643   -3.5309556518
N        1.1457461332   -0.0444710738   -4.0783572548
Br       3.2708116904    1.5079558899   -0.1140110555
H        2.3172434423   -1.3769664694   -0.5507140778
H        0.5912920743   -1.2888954586   -0.1690449351
H        0.8301514540    1.1748018144    0.3420635623
H        1.8222817979    0.1416527911    1.4091738349
H        1.9274739882    0.5390967912   -4.4005522026
13   
torsion grid (-90,)
C        1.1593152211   -0.3298933755   -1.9667299042
C        1.4488598397   -0.7390237727   -0.5597064602
C        1.6894433899    0.4576445966    0.3551576449
N        0.1688193468    0.6288496172   -2.2693862164
N        1.7651690457   -0.7557103018   -3.0290076829
N        0.1101963863    0.7230331010   -3.5316460269
N        1.1575282849   -0.0399434707   -4.1103575374
Br       3.2950511870    1.4799331097   -0.1991484666
H        2.3064160215   -1.4141391735   -0.5582065445
H        0.5849320151   -1.2883934970   -0.1618790924
H        0.8655682740    1.1683758409    0.3249145270
H        1.8778918245    0.1426473268    1.3799785832
H        1.9773686627    0.5815019995   -4.2053035710
13   
torsion grid (-75,)
C        1.1409227252   -0.4130012809   -2.0032504397
C        1.4578444909   -0.8229613433   -0.6024868287
C        1.7957475773    0.3731885699    0.2824439494
N        0.1684206912    0.5847503909   -2.2753062859
N        1.7001776756   -0.8620684970   -3.0776927747
N        0.0665027055    0.6708698332   -3.5315054828
N        1.1205526359   -0.0588873639   -4.1624434343
Br       3.3852955604    1.3459960768   -0.3946535163
H        2.2779715663   -1.5428158409   -0.6217596850
H        0.5800962826   -1.3177060515   -0.1654873825
H        0.9919669711    1.1068958527    0.3031981950
H        2.0474174271    0.0607646836    1.2943702572
H        1.9771127950    0.5201426636   -4.0465872966
13   
torsion grid (75,)
C        0.3555620898    0.1829666561   -2.0084810548
C        0.4773862086   -0.3360758904   -0.6129051956
C       -0.0583792109    0.6349512315    0.4363886434
N       -0.8941553106    0.6079281569   -2.5286276449
N        1.3144722072    0.3068173438   -2.8669615504
N       -0.6747439131    1.0956484874   -3.6733152543
N        0.6580856632    0.7943430270   -4.0889710098
Br       1.0156386023    2.2949199641    0.5037803402
H        1.5216414974   -0.5864912040   -0.4184197698
H       -0.1124267783   -1.2597899447   -0.5348875622
H       -1.0777289807    0.9488657201    0.2190687289
H       -0.0028134394    0.2035153798    1.4345023677
H        0.6538156265   -0.2087241452   -4.3580401957
13   
torsion grid (90,)
C        0.3289853603    0.1722779644   -2.0005347075
C        0.4561096017   -0.3295551413   -0.5994746409
C       -0.0740356384    0.6533407111    0.4411852433
N       -0.9128934757    0.5799535847   -2.5294217282
N        1.2868097119    0.2832574959   -2.8666715030
N       -0.6968614038    1.0336234466   -3.6928023956
N        0.6572539554    0.7942281267   -4.0471333228
Br       1.0011342413    2.3142220521    0.4857395778
H        1.5011449665   -0.5782130626   -0.4065995437
H       -0.1335745782   -1.2519780031   -0.5073265313
H       -1.0940272260    0.9656362720    0.2243782231
H       -0.0143672936    0.2338419225    1.4441610107
H        0.6994641407   -0.1271212621   -4.5109178727
13   
torsion grid (105,)
C        0.2450400955    0.1308550783   -2.0186081254
C        0.3728369581   -0.3305578421   -0.6040662375
C       -0.1819896786    0.6698746837    0.4064811456
N       -0.9934807089    0.4717186890   -2.5776281211
N        1.2155137351    0.2591674707   -2.8767036287
N       -0.7717420059    0.8875159994   -3.7620132502
N        0.5947397008    0.7499065084   -4.0348932687
Br       0.8645224558    2.3502835793    0.4192625268
H        1.4207759924   -0.5550416308   -0.3977814670
H       -0.2015814117   -1.2599978372   -0.4895675876
H       -1.2047933774    0.9595301861    0.1719724651
H       -0.1253788773    0.2775760906    1.4206291034
H        0.7532410869   -0.0479046243   -4.6615217228
13   
torsion grid (120,)
C        0.2375595194    0.1222697178   -2.0058736399
C        0.3774257024   -0.3251092801   -0.5877516247
C       -0.1495582700    0.6936731799    0.4189104758
N       -0.9875510878    0.4715471191   -2.5594134711
N        1.2124480951    0.2268213655   -2.8755745974
N       -0.7624637302    0.8571650510   -3.7648608744
N        0.5870564922    0.7268418858   -3.9980623602
Br       0.9210757936    2.3597178670    0.4009563821
H        1.4247241677   -0.5619781809   -0.3914036327
H       -0.2074730856   -1.2452796198   -0.4543517702
H       -1.1705386940    0.9962473162    0.1931586674
H       -0.0858368617    0.3123300209    1.4368677951
H        0.8440171352    0.0983296985   -4.7619110001
13   
torsion grid (135,)
C        0.2020512364    0.0896861708   -2.0060157875
C        0.3477511219   -0.3362806714   -0.5816697328
C       -0.1764067532    0.6970440281    0.4111717354
N       -1.0135575918    0.4247900527   -2.5655296272
N        1.1867206686    0.1878382245   -2.8775978853
N       -0.7821198854    0.7813101808   -3.7891022285
N        0.5571621762    0.6712532380   -3.9813864200
Br       0.8941372498    2.3634235204    0.3667835995
H        1.3961106510   -0.5686294887   -0.3852076343
H       -0.2349385417   -1.2550239948   -0.4308602127
H       -1.1975606309    0.9968738726    0.1825918664
H       -0.1106561143    0.3314486167    1.4348012734
H        0.8873917168    0.2294678548   -4.8376716821
13   
torsion grid (150,)
C        0.1703305499    0.0542001186   -2.0047728084
C        0.3220144031   -0.3552020958   -0.5758826826
C       -0.2004527826    0.6890400429    0.4059966733
N       -1.0370100484    0.3838991273   -2.5659156567
N        1.1635714887    0.1445546666   -2.8787249216
N       -0.8008762065    0.7165132780   -3.8047700385
N        0.5266323289    0.6030556942   -3.9714165573
Br       0.8705080374    2.3551793628    0.3419258916
H        1.3716428938   -0.5826191667   -0.3801493723
H       -0.2573362371   -1.2734613861   -0.4107370904
H       -1.2215153402    0.9870941856    0.1747457823
H       -0.1337194881    0.3356310006    1.4338583960
H        0.9143886077    0.3616072621   -4.8791007966
13   
torsion grid (165,)
C        0.1470134727    0.0229820393   -2.0023527382
C        0.3041155554   -0.3744893246   -0.5703454199
C       -0.2166175271    0.6781249745    0.4031083870
N       -1.0532619855    0.3583383069   -2.5613259334
N        1.1453206905    0.1002234596   -2.8804935377
N       -0.8149423453    0.6679883151   -3.8129798102
N        0.5013226878    0.5284241706   -3.9705862200
Br       0.8564804756    2.3428305680    0.3247394699
H        1.3548712412   -0.5979937385   -0.3759667715
H       -0.2721813935   -1.2924509209   -0.3937714361
H       -1.2372375232    0.9758911971    0.1695914164
H       -0.1497719676    0.3337581313    1.4340250022
H        0.9312422827    0.4871413789   -4.8890466876
13   
torsion grid (180,)
C        0.1322565248   -0.0096222356   -2.0009237586
C        0.2913697032   -0.3997465401   -0.5669712378
C       -0.2338141301    0.6564980628    0.3997825400
N       -1.0627648334    0.3459813205   -2.5548077137
N        1.1292058263    0.0439849769   -2.8849227139
N       -0.8256412872    0.6331954585   -3.8140055038
N        0.4802555080    0.4435046693   -3.9787880381
Br       0.8386775784    2.3217177573    0.3170003802
H        1.3432420851   -0.6172162012   -0.3718479418
H       -0.2797543004   -1.3197375310   -0.3841633454
H       -1.2538194446    0.9526660327    0.1616421745
H       -0.1698186398    0.3173712435    1.4325816978
H        0.9419251958    0.5942206203   -4.8693179822
