14   
torsion grid (-165,)
C       -0.5390910697   -0.8890083256   -0.1968240896
C       -0.1467259563   -2.0637927863    0.3118316612
C        1.2006388552   -2.2850396497    0.9479212364
C       -1.0508092485   -3.2692986476    0.2366459298
N       -2.1679241932   -6.0196667234    1.7861174576
N       -1.2543969756   -3.8258241579    1.6052188756
N       -1.7313895409   -4.9692970390    1.6367583911
H       -1.5244302808   -0.7530822105   -0.6369568079
H        0.1172457138   -0.0221980473   -0.1898883122
H        1.0839619547   -2.6094934644    1.9873675083
H        1.8049082673   -1.3746815947    0.9302757044
H        1.7531793073   -3.0776480694    0.4272148817
H       -2.0191173199   -2.9972637548   -0.1980735456
H       -0.5914373891   -4.0374376737   -0.4020578201
14   
torsion grid (-150,)
C       -0.5052127881   -0.8708352246   -0.2147242776
C       -0.1675937597   -2.0576125621    0.3051807162
C        1.1596288176   -2.3280634573    0.9641175804
C       -1.1189685418   -3.2270920086    0.2236408795
N       -1.8730751944   -6.0807990812    1.8202779236
N       -1.3867553471   -3.7592360493    1.5910660022
N       -1.6343582105   -4.9719903536    1.6471216941
H       -1.4786033355   -0.7026254872   -0.6699990744
H        0.1829561029   -0.0290677242   -0.2025158761
H        1.0137461834   -2.6351313180    2.0052533063
H        1.8021652489   -1.4443293879    0.9470046373
H        1.6866479965   -3.1485732320    0.4602603773
H       -2.0667203560   -2.9201794061   -0.2315228312
H       -0.6792446919   -4.0181968521   -0.3996099870
14   
torsion grid (-135,)
C       -0.4778548306   -0.8580967440   -0.2205092785
C       -0.1900672474   -2.0589526894    0.2970065684
C        1.1143116283   -2.3789664591    0.9791329265
C       -1.1813333340   -3.1946139856    0.1938069673
N       -1.5673965265   -6.0736845351    1.8869510665
N       -1.5172291665   -3.7154038736    1.5508435766
N       -1.5284256588   -4.9487983027    1.6634098940
H       -1.4366180814   -0.6549048336   -0.6922657162
H        0.2375564600   -0.0397973700   -0.1900339534
H        0.9390231929   -2.6794408234    2.0178887111
H        1.7899774524   -1.5201877766    0.9750451787
H        1.6200529658   -3.2181911824    0.4842129937
H       -2.1070823534   -2.8516808058   -0.2784805392
H       -0.7603023763   -4.0010127632   -0.4214573249
14   
torsion grid (-120,)
C       -0.4558478770   -0.8508615365   -0.2150596169
C       -0.2139648910   -2.0673488573    0.2892928872
C        1.0668871497   -2.4357043482    0.9919084509
C       -1.2375360575   -3.1720221252    0.1526828567
N       -1.2660242291   -6.0002764020    1.9751476370
N       -1.6386863123   -3.6974747831    1.4900988720
N       -1.4196802090   -4.9010178877    1.6832824732
H       -1.3983481950   -0.6112335542   -0.7022767091
H        0.2826846707   -0.0548306326   -0.1575616397
H        0.8647914041   -2.7385281524    2.0253852196
H        1.7698240741   -1.5993400022    1.0093786221
H        1.5553188177   -3.2858231432    0.4982034740
H       -2.1426387475   -2.7947416886   -0.3304698599
H       -0.8321674737   -3.9845290311   -0.4644615966
14   
torsion grid (-105,)
C       -0.4416597937   -0.8475295114   -0.1930943111
C       -0.2373884955   -2.0826782357    0.2816671533
C        1.0204519212   -2.4977744407    1.0006753491
C       -1.2855466842   -3.1585732987    0.1007745549
N       -0.9805009279   -5.8645011729    2.0742164377
N       -1.7432639571   -3.7064777066    1.4106483989
N       -1.3120328059   -4.8310963018    1.7009429973
H       -1.3696437136   -0.5746330984   -0.6904716275
H        0.3134087543   -0.0703288313   -0.1012032090
H        0.7978659049   -2.7836957896    2.0350849074
H        1.7555469086   -1.6896200924    1.0214703843
H        1.4809895063   -3.3699461597    0.5191594597
H       -2.1717188591   -2.7479553774   -0.3875147505
H       -0.8918956339   -3.9689221276   -0.5268046740
14   
torsion grid (-90,)
C       -0.4109481628   -0.9720416952   -0.6959415450
C       -0.1605791442   -1.9028290430    0.2337236356
C        1.0949758392   -1.9170518891    1.0683770805
C       -1.1465080167   -3.0250572632    0.4788640473
N       -0.4572841379   -4.3554926118    3.4907814997
N       -1.6454942630   -3.0572949733    1.8834105691
N       -0.9830657224   -3.7466155527    2.6721842244
H       -1.3331510170   -0.9741313776   -1.2725707687
H        0.3002035926   -0.1780117407   -0.9115835452
H        0.8630070366   -1.7643663210    2.1286486222
H        1.7873084139   -1.1301155248    0.7594842431
H        1.6125383892   -2.8814602703    0.9896876765
H       -2.0326137106   -2.8953928141   -0.1438714142
H       -0.6896630441   -3.9918706416    0.2271981827
14   
torsion grid (-75,)
C       -0.4263414622   -0.9514039243   -0.6347847852
C       -0.1699772392   -1.9276479045    0.2458848107
C        1.0920629776   -1.9707992799    1.0713449958
C       -1.1526642649   -3.0661154646    0.4240992780
N       -0.3712986004   -4.0773712828    3.5528006002
N       -1.7134741373   -3.1814120422    1.7996159936
N       -0.9599033659   -3.6496184960    2.6649389412
H       -1.3490574607   -0.9278461018   -1.2099789032
H        0.2805147496   -0.1435330735   -0.8097106849
H        0.8784406188   -1.8214803262    2.1354786397
H        1.7921832860   -1.1911409897    0.7611964016
H        1.5948776311   -2.9415057962    0.9797104931
H       -2.0198053548   -2.9239492990   -0.2206884983
H       -0.6768313248   -4.0179077378    0.1484852256
14   
torsion grid (-60,)
C       -0.4851395100   -0.9117556332   -0.5036495720
C       -0.1591997644   -1.9632712645    0.2601378590
C        1.1475145840   -2.0446672892    1.0128218387
C       -1.1034409600   -3.1435848282    0.3620883620
N       -0.5099278416   -3.6747996291    3.6713766195
N       -1.7706061570   -3.3206278994    1.6825078398
N       -1.0486859375   -3.4963690389    2.6731780747
H       -1.4329811532   -0.8629646970   -1.0345538014
H        0.1863009937   -0.0641355970   -0.6212567286
H        0.9994102982   -1.9662518557    2.0948171280
H        1.8224918420   -1.2388819754    0.7132922281
H        1.6510366935   -3.0014003284    0.8283402268
H       -1.9279964142   -3.0317532361   -0.3413428919
H       -0.5700506207   -4.0712684464    0.1106353251
14   
torsion grid (-45,)
C       -0.5678728724   -0.8967777972   -0.2788870155
C       -0.1214362221   -2.0300210749    0.2784678244
C        1.2600480795   -2.1611169843    0.8736973738
C       -1.0099215514   -3.2578371663    0.3265729313
N       -0.8654897467   -3.0179471974    3.7106296141
N       -1.8296665781   -3.3953385526    1.5660144990
N       -1.2622999307   -3.1885936518    2.6469672807
H       -1.5642389566   -0.8287199729   -0.7098036117
H        0.0455768504    0.0005178315   -0.3151698274
H        1.2252845182   -2.4493547728    1.9300336222
H        1.8156992735   -1.2228456576    0.7997686750
H        1.8309306897   -2.9397237816    0.3523960306
H       -1.7463972424   -3.2337861683   -0.4769914766
H       -0.4114902581   -4.1701867724    0.2046965880
14   
torsion grid (-30,)
C       -0.5941970522   -0.9029781456   -0.1950985724
C       -0.1165784958   -2.0553496177    0.2927411685
C        1.2768667266   -2.1928776112    0.8574012153
C       -0.9812471913   -3.2990735815    0.3000378034
N       -0.9605132101   -2.7386324354    3.6485891851
N       -1.7697729772   -3.5199106521    1.5497133854
N       -1.2885295082   -3.0944515405    2.6075328228
H       -1.5995252273   -0.8300957342   -0.6039672515
H        0.0031390632    0.0057669001   -0.1955834744
H        1.2636733728   -2.5532335586    1.8922392065
H        1.8107153097   -1.2393537188    0.8399093840
H        1.8559329155   -2.9216317658    0.2765039881
H       -1.7313593914   -3.2557279165   -0.4911558585
H       -0.3698782814   -4.1941823407    0.1295295056
14   
torsion grid (-15,)
C       -0.6011638878   -0.9102714529   -0.1589417508
C       -0.1144681267   -2.0706322295    0.3004379477
C        1.2813311733   -2.2127394567    0.8578306382
C       -0.9703817227   -3.3173621925    0.2855990523
N       -1.0321624431   -2.5606987458    3.5969405350
N       -1.6714466993   -3.6324826798    1.5691116279
N       -1.2881583398   -3.0454755437    2.5880661707
H       -1.6089209522   -0.8349286562   -0.5612138409
H       -0.0082265854    0.0012404219   -0.1446731634
H        1.2725134202   -2.5995217050    1.8831734960
H        1.8082655282   -1.2553042564    0.8640735245
H        1.8637749095   -2.9224081668    0.2571020021
H       -1.7645642509   -3.2340172393   -0.4594391526
H       -0.3676659705   -4.1971298157    0.0303254213
14   
torsion grid (0,)
C       -0.5999978692   -0.9144314914   -0.1429114283
C       -0.1113746191   -2.0785569991    0.3048523855
C        1.2842669232   -2.2243923462    0.8613136256
C       -0.9633467158   -3.3255111244    0.2793576648
N       -1.1198302209   -2.4488127223    3.5550050285
N       -1.5476166937   -3.7329949809    1.5958382980
N       -1.2874053533   -3.0256459526    2.5765556921
H       -1.6087750179   -0.8353642985   -0.5417130280
H       -0.0060109047   -0.0036896283   -0.1248211201
H        1.2738962017   -2.6171832544    1.8843838672
H        1.8113045349   -1.2671317754    0.8739079065
H        1.8665245176   -2.9310347771    0.2569477907
H       -1.8101295233   -3.2002967058   -0.4009103682
H       -0.3827792068   -4.1866856620   -0.0694138063
14   
torsion grid (15,)
C       -0.5946425060   -0.9154610610   -0.1311103798
C       -0.1034511389   -2.0822380275    0.3066435739
C        1.2941779729   -2.2322900842    0.8561292564
C       -0.9551344678   -3.3284857973    0.2821960778
N       -1.2454249293   -2.3790615519    3.5181443715
N       -1.4102135088   -3.8125484744    1.6229366861
N       -1.3023436284   -3.0207334667    2.5683605981
H       -1.6071539940   -0.8330613068   -0.5196416873
H        0.0016991893   -0.0062126655   -0.1169071683
H        1.2834555234   -2.6083186407    1.8855508472
H        1.8300132009   -1.2799253603    0.8506690485
H        1.8666045924   -2.9548297810    0.2614423496
H       -1.8524745126   -3.1684341232   -0.3239489150
H       -0.4063857404   -4.1701313781   -0.1520721508
14   
torsion grid (30,)
C       -0.5854166269   -0.9155611183   -0.1194950855
C       -0.0878947452   -2.0838578725    0.3073734348
C        1.3172590937   -2.2378523082    0.8343290820
C       -0.9427215781   -3.3282710583    0.2995191270
N       -1.4310224409   -2.3401964478    3.4851625421
N       -1.2712495315   -3.8610172436    1.6575414815
N       -1.3458624955   -3.0216801634    2.5664806536
H       -1.6056557960   -0.8297235524   -0.4864630781
H        0.0140884703   -0.0082932784   -0.1189206498
H        1.3177968577   -2.6222321518    1.8607106236
H        1.8532711841   -1.2856614614    0.8274786078
H        1.8810375870   -2.9572566186    0.2276899722
H       -1.8832713331   -3.1448043746   -0.2314874444
H       -0.4316325928   -4.1553240692   -0.2015267588
14   
torsion grid (45,)
C       -0.5745208778   -0.9131383276   -0.0922868547
C       -0.0615612404   -2.0836440564    0.3098311022
C        1.3613741958   -2.2433278789    0.7829332497
C       -0.9196189171   -3.3266209255    0.3355601929
N       -1.7045962311   -2.3287737630    3.4428135899
N       -1.1473295864   -3.8681536201    1.7097409068
N       -1.4386622724   -3.0204903340    2.5682416941
H       -1.6082614474   -0.8256800649   -0.4190754338
H        0.0248717530   -0.0059824752   -0.1117877754
H        1.3939924866   -2.6444854867    1.8022052605
H        1.8971974519   -1.2910813611    0.7703423864
H        1.9036176211   -2.9541081916    0.1470056086
H       -1.8892574143   -3.1362044233   -0.1385753287
H       -0.4385194686   -4.1500408101   -0.1985560906
14   
torsion grid (60,)
C       -0.5538364758   -0.9043410993   -0.0691197698
C       -0.0301354215   -2.0766513132    0.3139651148
C        1.4114682591   -2.2462090638    0.7206092121
C       -0.8951340865   -3.3140899657    0.3856515582
N       -2.0153726643   -2.3880159776    3.3988288809
N       -1.0409249014   -3.8389672771    1.7765085847
N       -1.5553310523   -3.0401741076    2.5763629460
H       -1.6010310572   -0.8102085413   -0.3479114036
H        0.0500657275   -0.0013921294   -0.1205000896
H        1.4842412013   -2.6417408588    1.7398274634
H        1.9554411125   -1.2994978896    0.6756619014
H        1.9167213183   -2.9668154655    0.0654342018
H       -1.8854853481   -3.1211716398   -0.0423397616
H       -0.4419605588   -4.1424563898   -0.1645863309
14   
torsion grid (75,)
C       -0.5211020276   -0.8894618993   -0.0782920632
C       -0.0006604518   -2.0599684962    0.3147558925
C        1.4527567801   -2.2456550153    0.6668206472
C       -0.8801513854   -3.2831511393    0.4451821268
N       -2.2949147322   -2.5340884961    3.3785212084
N       -0.9509764373   -3.7792553326    1.8521377683
N       -1.6626959110   -3.0905023289    2.6009699714
H       -1.5768046185   -0.7855875408   -0.3192133822
H        0.0935929615    0.0024217253   -0.1756034988
H        1.5569603966   -2.6338683375    1.6859145947
H        2.0075833506   -1.3071228388    0.5919255161
H        1.9224502593   -2.9786761354   -0.0011317535
H       -1.8868555992   -3.0840293902    0.0617441229
H       -0.4604565323   -4.1227864934   -0.1153386425
14   
torsion grid (90,)
C       -0.4817256827   -0.8700775689   -0.1218757137
C        0.0228178629   -2.0340180161    0.3093350223
C        1.4797365847   -2.2399147588    0.6324185391
C       -0.8782955275   -3.2331870141    0.5028751775
N       -2.5030302305   -2.7649576997    3.3903424676
N       -0.8764392030   -3.7020131383    1.9210531990
N       -1.7409222357   -3.1769443003    2.6388940694
H       -1.5408311092   -0.7524591921   -0.3406555818
H        0.1497099235    0.0023178736   -0.2738282239
H        1.5996316062   -2.5890622701    1.6636783752
H        2.0531115039   -1.3182865660    0.5053421286
H        1.9156435190   -3.0103213896   -0.0162630277
H       -1.8977668396   -3.0165610661    0.1675983018
H       -0.5029141192   -4.0862466119   -0.0705222254
14   
torsion grid (105,)
C       -0.4398813458   -0.8501796444   -0.1766494422
C        0.0412521363   -2.0047590912    0.3030031776
C        1.4981021505   -2.2346705726    0.6089357769
C       -0.8844430050   -3.1728615944    0.5587196654
N       -2.6561684254   -3.0344837615    3.4016061969
N       -0.8253242726   -3.6057139595    1.9874414257
N       -1.8019939973   -3.2768226528    2.6747816638
H       -1.4993220131   -0.7124665649   -0.3817289262
H        0.2124998881   -0.0047708264   -0.3829602023
H        1.6285142992   -2.5306209576    1.6553588027
H        2.0935728548   -1.3378012783    0.4208533185
H        1.8994021914   -3.0512755614   -0.0046416922
H       -1.9104072221   -2.9319693728    0.2640289519
H       -0.5570771861   -4.0433358807   -0.0203562086
14   
torsion grid (120,)
C       -0.7420579723   -1.0423024483   -0.0020084031
C       -0.1020655709   -2.1760053610    0.3128969277
C        1.2787631978   -2.2112898195    0.9134995665
C       -0.7483645645   -3.5172226075    0.0532179392
N       -2.9756973887   -4.9874340942    2.0882936983
N       -0.8252561953   -4.3162895460    1.3135202034
N       -1.9674916055   -4.6341670896    1.6683853714
H       -1.7431154809   -1.0478184642   -0.4277426097
H       -0.2822864408   -0.0691762450    0.1543081853
H        1.2656053359   -2.7384623174    1.8734233583
H        1.6725292566   -1.2041152211    1.0712156881
H        1.9726446509   -2.7564810763    0.2611050160
H       -1.7388113659   -3.3925823908   -0.3946189915
H       -0.1297837321   -4.1003854632   -0.6399448792
14   
torsion grid (135,)
C       -0.6956824623   -1.0016110616   -0.0475508861
C       -0.1021120543   -2.1458458156    0.3156751707
C        1.2786292896   -2.2082533965    0.9136577901
C       -0.7993155402   -3.4697984520    0.1103570118
N       -2.9211849985   -5.2592982747    1.9948145017
N       -0.8609010650   -4.2220289528    1.3998898507
N       -1.9547691297   -4.7402190261    1.6564350755
H       -1.6988000041   -0.9855586700   -0.4678868091
H       -0.1944075971   -0.0426000049    0.0613566425
H        1.2466791863   -2.6800080431    1.9014247788
H        1.7158010015   -1.2116675398    1.0137960868
H        1.9453164821   -2.8188669603    0.2915611112
H       -1.8006417122   -3.3213514823   -0.3049052365
H       -0.2239992718   -4.0866244647   -0.5930740175
14   
torsion grid (150,)
C       -0.6572970320   -0.9697865212   -0.0880678419
C       -0.1044996664   -2.1201082333    0.3172056421
C        1.2758455025   -2.2124421641    0.9127427000
C       -0.8501443442   -3.4230627116    0.1628418361
N       -2.8238291629   -5.4975923964    1.9026120777
N       -0.9307179843   -4.1125468111    1.4851059518
N       -1.9330100451   -4.8211292124    1.6450033897
H       -1.6611887491   -0.9307063049   -0.5049848097
H       -0.1195917405   -0.0272173612   -0.0171451957
H        1.2306943399   -2.6460605895    1.9173564944
H        1.7505702305   -1.2300581988    0.9749278170
H        1.9162920093   -2.8701110964    0.3113803202
H       -1.8508830376   -3.2489562744   -0.2456155066
H       -0.3076281957   -4.0839542691   -0.5278118045
14   
torsion grid (165,)
C       -0.6157130391   -0.9385618211   -0.1301437200
C       -0.1139293260   -2.0963823979    0.3175799249
C        1.2601922490   -2.2265893780    0.9204861781
C       -0.9131756586   -3.3706607995    0.2040875217
N       -2.6575506098   -5.7162195839    1.8318234466
N       -1.0187111681   -4.0094131176    1.5488187723
N       -1.8836069150   -4.8918228369    1.6363311617
H       -1.6166918082   -0.8708896842   -0.5503013964
H       -0.0373943472   -0.0184799764   -0.0919648505
H        1.1941864091   -2.6158850362    1.9419142277
H        1.7787800493   -1.2648970653    0.9437063122
H        1.8710032904   -2.9368332186    0.3487916602
H       -1.9095494068   -3.1660084819   -0.2024000612
H       -0.4032275948   -4.0710887469   -0.4731781068
14   
torsion grid (180,)
C       -0.5759756655   -0.9114964031   -0.1667021056
C       -0.1280527952   -2.0773079769    0.3159728048
C        1.2354552076   -2.2506998195    0.9320575545
C       -0.9809486703   -3.3181634745    0.2300884826
N       -2.4361445888   -5.8944484461    1.7889649524
N       -1.1291160182   -3.9113283671    1.5908868042
N       -1.8163350233   -4.9416479160    1.6328176001
H       -1.5713132702   -0.8127182106   -0.5939930035
H        0.0418069739   -0.0168047813   -0.1510496948
H        1.1459174064   -2.6011593298    1.9657005290
H        1.7982148001   -1.3139267191    0.9262281265
H        1.8157470455   -3.0076223527    0.3891055745
H       -1.9662949433   -3.0810084119   -0.1864240236
H       -0.4983483343   -4.0553999358   -0.4281025305
