27   
torsion grid (-165,)
C       -1.1806004589    1.1960001214   -0.6148950332
C       -1.8090959748   -0.0683966004   -0.0123962793
C        0.1222809730    1.5748382299    0.1048033314
C        0.4750559508   -0.8743643132    0.7098585505
C       -0.8385605456   -1.2651490537   -0.0006285459
C        1.0938043354    0.3863824087    0.0984372176
C       -0.5921898191   -1.8369250385   -1.4058022169
C        3.8309347059   -0.3783924791    0.5482176890
O        2.3616990769    0.7790731894    2.4492096480
O        3.0836174160    2.1561210000    0.4203962811
S        2.6124087847    0.8839697176    0.9994122429
H       -0.9811615363    1.0488352916   -1.6834129771
H       -1.8850596251    2.0320904838   -0.5462270980
H       -2.1144592316    0.1481145838    1.0197397380
H       -2.7204763457   -0.3355529771   -0.5601087589
H        0.5927318471    2.4427117025   -0.3635283392
H       -0.0999527008    1.8448954071    1.1442968562
H        0.2789030310   -0.6782710928    1.7689894903
H        1.1771271550   -1.7148601625    0.6648947246
H       -1.2964651195   -2.0627989958    0.5974546479
H        1.4426634943    0.2055829847   -0.9247085165
H        0.0743771099   -2.7057255539   -1.3632772317
H       -0.1382264060   -1.1065433280   -2.0831027509
H       -1.5334465392   -2.1616152279   -1.8621123781
H        4.7585768330   -0.0754068122    1.0374224042
H        3.5109337839   -1.3527826337    0.9184317644
H        3.9584405306   -0.3789084932   -0.5353193276
27   
torsion grid (-150,)
C       -1.1258043939    1.1938897493   -0.6830576175
C       -1.8196999825   -0.0301659359   -0.0679657543
C        0.1494689267    1.5669411116    0.0881017647
C        0.4014870503   -0.8705441691    0.7987416229
C       -0.8870196128   -1.2525423014    0.0393034195
C        1.0793249591    0.3508135385    0.1729039882
C       -0.5915149021   -1.8888202990   -1.3281888652
C        3.8709108811   -0.2661284577    0.3755091588
O        2.4386668847    0.4327456139    2.5189516292
O        2.9678397112    2.1891243007    0.7413771640
S        2.6036888596    0.8057575402    1.1017701883
H       -0.8759389850    0.9996484376   -1.7335166352
H       -1.8099500244    2.0494799586   -0.6835594253
H       -2.1717494262    0.2338551926    0.9379315829
H       -2.7092455119   -0.2928984044   -0.6525891232
H        0.6695087858    2.4036043069   -0.3834882297
H       -0.1180727312    1.8852575174    1.1032545944
H        0.1640966660   -0.6336219159    1.8404709593
H        1.0865964838   -1.7259856570    0.8209347997
H       -1.3977531961   -2.0114401845    0.6449517840
H        1.4511851783    0.1187917492   -0.8322081817
H        0.0486975194   -2.7714331043   -1.2186054387
H       -0.0875192092   -1.1992715109   -2.0130503812
H       -1.5190438198   -2.2088770821   -1.8149250660
H        4.7850802461   -0.0709157566    0.9392049129
H        3.5769700680   -1.3114341354    0.4857792540
H        4.0036502997    0.0070922561   -0.6719869722
27   
torsion grid (-135,)
C       -1.0625575061    1.1856419691   -0.7459383471
C       -1.8259477104    0.0120706884   -0.1153422389
C        0.1972716219    1.5378488597    0.0600301928
C        0.3273876865   -0.8811079085    0.8644663812
C       -0.9465905338   -1.2398417632    0.0701180755
C        1.0738923145    0.2914027279    0.2231928210
C       -0.6268153527   -1.9371628302   -1.2617847781
C        3.9195559074   -0.1047718843    0.2501479656
O        2.5256201064    0.0639606707    2.5162087407
O        2.8423198304    2.1571234274    1.0875803160
S        2.6001293734    0.7052869014    1.1906122606
H       -0.7825491771    0.9439291974   -1.7789106165
H       -1.7121754726    2.0659866283   -0.8021890806
H       -2.2032159645    0.3260184126    0.8668427070
H       -2.7037037032   -0.2373788658   -0.7231883627
H        0.7648812443    2.3383804105   -0.4195039649
H       -0.0925590739    1.9065121276    1.0511988109
H        0.0607163630   -0.6023067463    1.8885815708
H        0.9807107219   -1.7566406089    0.9433923393
H       -1.5089553202   -1.9562703858    0.6817528339
H        1.4641818997    0.0037006608   -0.7601492391
H       -0.0242074292   -2.8373055466   -1.0964078756
H       -0.0736298409   -1.2925818477   -1.9525708556
H       -1.5478389474   -2.2418272763   -1.7703425062
H        4.8405570778    0.0813794429    0.8058034078
H        3.7225428886   -1.1771173844    0.1932176168
H        3.9748397208    0.3479932816   -0.7407730416
27   
torsion grid (-120,)
C       -0.9909136884    1.1712536509   -0.8050160278
C       -1.8258738109    0.0577406263   -0.1572076864
C        0.2636957552    1.4906897389    0.0231115345
C        0.2578910458   -0.8924190758    0.9164698319
C       -1.0088013941   -1.2232879306    0.0991380512
C        1.0806047603    0.2143421201    0.2484863737
C       -0.6848435352   -1.9838571261   -1.1967630612
C        3.9570050574    0.0941823758    0.1599094429
O        2.6380035919   -0.3110376901    2.4268150118
O        2.7054972649    2.0452600435    1.4456329233
S        2.6018483709    0.5860561025    1.2566880148
H       -0.6974821920    0.8808636802   -1.8216536443
H       -1.5947897077    2.0795669062   -0.9078152750
H       -2.2172423411    0.4241180659    0.8009777967
H       -2.6956574972   -0.1744782760   -0.7831260534
H        0.8727021731    2.2543545811   -0.4674989912
H       -0.0280859651    1.9035338009    0.9950187384
H       -0.0295510723   -0.5555889315    1.9178620439
H        0.8665208046   -1.7903055895    1.0573213650
H       -1.6184363626   -1.8916920011    0.7198482544
H        1.4808870778   -0.1373485225   -0.7091411066
H       -0.1288286054   -2.9030060375   -0.9810638242
H       -0.0840622136   -1.3914148218   -1.8945035199
H       -1.6047412879   -2.2656657149   -1.7204004068
H        4.8768954597    0.2847938521    0.7159328607
H        3.8660302425   -0.9691224132   -0.0693149330
H        3.9255887943    0.7053909444   -0.7436625807
27   
torsion grid (-105,)
C       -0.9124093506    1.1513241065   -0.8618454109
C       -1.8133798396    0.1044830370   -0.1922119900
C        0.3440703867    1.4330774180   -0.0225262830
C        0.2023020353   -0.9028422003    0.9563068097
C       -1.0642468714   -1.2034151828    0.1278571892
C        1.0968009118    0.1282665416    0.2563101354
C       -0.7547893138   -2.0281158701   -1.1317851782
C        3.9628879384    0.3135523325    0.1088630514
O        2.7659507548   -0.6525276716    2.2579629607
O        2.5664874209    1.8468674914    1.7801105791
S        2.6026978484    0.4543537779    1.2965263485
H       -0.6192038086    0.8127666612   -1.8634933342
H       -1.4668104914    2.0855677307   -1.0037353663
H       -2.2047607675    0.5248542433    0.7435089208
H       -2.6811014614   -0.1084280514   -0.8277904428
H        0.9920809614    2.1536592474   -0.5314461087
H        0.0652727515    1.8889302702    0.9327027432
H       -0.0914827379   -0.5032119139    1.9334613315
H        0.7625036433   -1.8205647738    1.1520655633
H       -1.7163477844   -1.8174329787    0.7614566523
H        1.4983385689   -0.2893399009   -0.6734948834
H       -0.2436935527   -2.9614064668   -0.8710434474
H       -0.1173102946   -1.4908329284   -1.8415671741
H       -1.6783783792   -2.2890093277   -1.6597777698
H        4.8738602209    0.5376857615    0.6670572432
H        3.9926630849   -0.7071791500   -0.2751656503
H        3.8218588509    1.0418401555   -0.6922613568
27   
torsion grid (-90,)
C       -1.3353094392    1.1792277149   -0.5118036720
C       -1.8488555014   -0.1767204325   -0.0080780303
C       -0.0783845439    1.6232578162    0.2534099650
C        0.4925535500   -0.8039201356    0.7121564093
C       -0.7656114361   -1.2718434088   -0.0482275501
C        1.0029765257    0.5411037774    0.1756882521
C       -0.4443166367   -1.7299993235   -1.4796802096
C        3.5023874168    1.9280983834   -0.0719213178
O        3.2477129106   -0.1751397676    1.5028579466
O        2.0913124116    1.9944192464    2.1942601231
S        2.4942998153    1.0413007556    1.1436744492
H       -1.1152647809    1.1256623476   -1.5852503161
H       -2.1146140085    1.9403757515   -0.3951503154
H       -2.1933893090   -0.0590174328    1.0277239681
H       -2.7199618625   -0.4913138897   -0.5949079218
H        0.2915558988    2.5743355365   -0.1460493228
H       -0.3177242680    1.7990820920    1.3065745300
H        0.2466350171   -0.6846831233    1.7739970369
H        1.2832808479   -1.5557562032    0.6527782416
H       -1.1521412052   -2.1460480789    0.4903064899
H        1.3720043391    0.4235262055   -0.8491377511
H        0.3101295911   -2.5241724534   -1.4748597014
H       -0.0622659815   -0.9175699477   -2.1064364321
H       -1.3413578155   -2.1229555240   -1.9704085208
H        4.3718635912    2.2993834003    0.4737633695
H        3.8107161897    1.2278995725   -0.8492893968
H        2.9317896438    2.7627109935   -0.4836364803
27   
torsion grid (-75,)
C       -1.2670350230    1.1814513404   -0.5850970355
C       -1.8369976796   -0.1260533669   -0.0180619931
C        0.0092198976    1.6074078227    0.1586027537
C        0.4760691171   -0.8209074951    0.7293390266
C       -0.8022818594   -1.2677453636   -0.0093713488
C        1.0432856848    0.4772984808    0.1357663572
C       -0.5032355885   -1.8029808602   -1.4185785036
C        3.4063628057    2.1083166552    0.0239732974
O        3.4014234157   -0.2618374366    1.1957586912
O        2.1254047094    1.6459877382    2.3182384889
S        2.5414598526    0.9324168371    1.0964270110
H       -1.0504261602    1.0674700118   -1.6544046862
H       -2.0129731351    1.9798746940   -0.5053561083
H       -2.1731292065    0.0542167945    1.0114391081
H       -2.7223976672   -0.4290440397   -0.5893144062
H        0.4151147068    2.5203884839   -0.2916511255
H       -0.2232206367    1.8424891545    1.2022509493
H        0.2374820064   -0.6434999620    1.7847093497
H        1.2343816748   -1.6074433302    0.6972941196
H       -1.2252809824   -2.0991572378    0.5680394470
H        1.4172648917    0.2993652845   -0.8786050933
H        0.2137947361   -2.6299232032   -1.3769882801
H       -0.0832050367   -1.0377675295   -2.0794359323
H       -1.4176607767   -2.1752254287   -1.8931207199
H        4.3070220888    2.3958236965    0.5696378479
H        3.6721287622    1.6081886673   -0.9083847897
H        2.7774503628    2.9821334643   -0.1507525822
27   
torsion grid (-60,)
C       -1.2084817872    1.1745376329   -0.6594524953
C       -1.8199144720   -0.0797158280   -0.0205114838
C        0.0931390453    1.5915436977    0.0451767742
C        0.4681672820   -0.8297343822    0.7389247479
C       -0.8307664476   -1.2597395055    0.0275401616
C        1.0799918463    0.4203012365    0.0892011073
C       -0.5642849825   -1.8644423209   -1.3597725777
C        3.3054752807    2.2568557996    0.1550531414
O        3.5363535119   -0.2786871097    0.8989011464
O        2.1875278650    1.3146354610    2.3756807070
S        2.5906028628    0.8444858410    1.0364303180
H       -1.0093571067    0.9977165774   -1.7233948575
H       -1.9226951594    2.0040220699   -0.6133358922
H       -2.1307514742    0.1625464770    1.0042532628
H       -2.7261611819   -0.3732285715   -0.5631511876
H        0.5308232282    2.4519246334   -0.4722739775
H       -0.1238385380    1.9043711965    1.0727137240
H        0.2465446120   -0.5998619065    1.7872264499
H        1.1967920673   -1.6453265097    0.7304508109
H       -1.2802614859   -2.0489621532    0.6428349235
H        1.4549975344    0.1836732887   -0.9126533325
H        0.1176804484   -2.7184083000   -1.2874934186
H       -0.1159582046   -1.1458263364   -2.0533842521
H       -1.4967044466   -2.2168757715   -1.8140652900
H        4.2743157563    2.4295660808    0.6275715930
H        3.4421790550    1.9960116027   -0.8959797002
H        2.6646058513    3.1298609723    0.2758634400
27   
torsion grid (-45,)
C       -1.1558944550    1.1692365583   -0.7294738183
C       -1.8048804532   -0.0341545512   -0.0326641418
C        0.1622785364    1.5777226951   -0.0501545357
C        0.4606695669   -0.8249258482    0.7495387629
C       -0.8555209326   -1.2435973394    0.0636726765
C        1.1078613807    0.3756847196    0.0450561897
C       -0.6187016587   -1.9197908481   -1.2955416068
C        3.2053549924    2.3664300922    0.2936752847
O        3.6641871261   -0.2391948418    0.5681426852
O        2.3228609872    0.9844941939    2.3699680716
S        2.6570467287    0.7688208770    0.9486542989
H       -0.9646117947    0.9365812047   -1.7840032565
H       -1.8431333753    2.0224507566   -0.7218611954
H       -2.1023656513    0.2633757423    0.9815109464
H       -2.7232607874   -0.3204132518   -0.5584837752
H        0.6240581704    2.3946423896   -0.6134588866
H       -0.0446974814    1.9492978035    0.9609173825
H        0.2584936946   -0.5451845645    1.7887994807
H        1.1618875486   -1.6649521715    0.7696024900
H       -1.3274260407   -1.9877620522    0.7171389374
H        1.4632179100    0.0886278947   -0.9502708856
H        0.0354290910   -2.7915014884   -1.1872937702
H       -0.1510641229   -1.2493804642   -2.0237090602
H       -1.5651859153   -2.2619277882   -1.7281068520
H        4.1926457688    2.5260600570    0.7315724888
H        3.2827761077    2.3116787237   -0.7938902448
H        2.5179960195    3.1489253736    0.6130161768
27   
torsion grid (-30,)
C       -1.1159090419    1.1603644428   -0.8003611401
C       -1.7932046896    0.0074872692   -0.0474346147
C        0.2147914262    1.5654117206   -0.1433569101
C        0.4555866931   -0.8077990198    0.7592865781
C       -0.8761226907   -1.2214739101    0.1001979258
C        1.1272892036    0.3424860773   -0.0010073723
C       -0.6679717481   -1.9668468474   -1.2272552038
C        3.1206094010    2.4390684871    0.4472320144
O        3.7620360410   -0.1362495481    0.2218859192
O        2.5045095710    0.6703620428    2.2981909629
S        2.7273965469    0.7142714982    0.8394791768
H       -0.9326459925    0.8744468156   -1.8430540478
H       -1.7808463940    2.0305890257   -0.8313638554
H       -2.0781495706    0.3585605395    0.9532261058
H       -2.7214182759   -0.2773291565   -0.5564651947
H        0.6948905294    2.3449236250   -0.7423861961
H        0.0149574847    1.9870213410    0.8501768377
H        0.2742661831   -0.4817999493    1.7883020369
H        1.1333739305   -1.6659151195    0.8109274986
H       -1.3637733496   -1.9210416745    0.7903545100
H        1.4537566139    0.0070679498   -0.9903349830
H       -0.0360558904   -2.8495393921   -1.0824090073
H       -0.1887191237   -1.3444744350   -1.9895850844
H       -1.6266165511   -2.3040261493   -1.6363376380
H        4.0965755882    2.6086744185    0.9064182527
H        3.1873454477    2.5711828437   -0.6340778763
H        2.3740696183    3.0958209770    0.8921051479
27   
torsion grid (-15,)
C       -1.3250632100    1.0996976952   -0.2692161742
C       -1.8969134929   -0.3124359148   -0.0851744881
C       -0.1167280741    1.3448560590    0.6505617942
C        0.3785336220   -1.1524259079    0.6248081320
C       -0.8369410723   -1.4115631549   -0.2897419300
C        0.9406268172    0.2590099520    0.4230684055
C       -0.4364365211   -1.5778672279   -1.7640770008
C        2.4312842870    2.1304807246    2.1488109928
O        3.6254450860    0.3496251658    0.5744425082
O        2.3397889505   -0.4518520391    2.6358494301
S        2.4592427890    0.4489682199    1.4723308581
H       -1.0230232978    1.2533894215   -1.3120652363
H       -2.0965300807    1.8482711210   -0.0573189090
H       -2.3042617972   -0.3978557811    0.9310711093
H       -2.7357397070   -0.4691387397   -0.7733581559
H        0.2947902993    2.3404341933    0.4592009421
H       -0.4515471309    1.3201793187    1.6956167313
H        0.0871752559   -1.2650691075    1.6738506011
H        1.1574874150   -1.8972103251    0.4350939462
H       -1.2761855495   -2.3632047470    0.0342818242
H        1.3570140306    0.3647405823   -0.5827559542
H        0.2968823659   -2.3831104021   -1.8792179129
H        0.0070940585   -0.6704069944   -2.1858034926
H       -1.3094671983   -1.8295146975   -2.3760417987
H        3.3313138433    2.1873401921    2.7643008934
H        2.4810945743    2.8623453390    1.3416505913
H        1.5439626799    2.2656191440    2.7664342877
27   
torsion grid (0,)
C       -1.2879559325    1.1218869234   -0.3452382709
C       -1.8897947002   -0.2661463317   -0.0878487072
C       -0.0676809626    1.3826129677    0.5543354628
C        0.3746970148   -1.1168743510    0.6484783369
C       -0.8548170990   -1.3969426129   -0.2412056500
C        0.9671142512    0.2674951582    0.3651207558
C       -0.4708104606   -1.6483739952   -1.7080349774
C        2.3400123525    2.0373451572    2.3045619915
O        3.6215905332    0.7061918426    0.4042759899
O        2.6063115810   -0.5832085651    2.3663623880
S        2.5212230550    0.4974177006    1.3649501592
H       -0.9905619431    1.2181491329   -1.3961338210
H       -2.0404999187    1.8974266899   -0.1644835031
H       -2.2936314096   -0.2911049586    0.9331885449
H       -2.7356514582   -0.4388962493   -0.7634556175
H        0.3621272731    2.3610290539    0.3176572253
H       -0.3969781933    1.4096831035    1.6005188473
H        0.0870988726   -1.1673898625    1.7040242200
H        1.1338042153   -1.8893991850    0.4986272598
H       -1.3110191524   -2.3210011954    0.1350586581
H        1.3688096031    0.3157187212   -0.6506648095
H        0.2472663404   -2.4715584318   -1.7866207131
H       -0.0162382953   -0.7725443076   -2.1816097405
H       -1.3539775259   -1.9167945409   -2.2979215307
H        3.2636402701    2.1069053850    2.8825925990
H        2.2558238995    2.8858965636    1.6257969933
H        1.4829967323    1.9657782770    2.9742699040
27   
torsion grid (15,)
C       -1.2500452863    1.1446191589   -0.4217867833
C       -1.8774834173   -0.2159298404   -0.0889761776
C       -0.0171615435    1.4238954298    0.4544534218
C        0.3782800260   -1.0687809875    0.6740301998
C       -0.8658877615   -1.3740468005   -0.1867113648
C        0.9967862593    0.2836951243    0.3043922745
C       -0.4998611664   -1.7142664936   -1.6401795938
C        2.2453647138    1.8978673907    2.4418126698
O        3.5598430211    1.0817087185    0.3010221772
O        2.8652199532   -0.6447161940    2.0553795496
S        2.5663372465    0.5610416355    1.2604835367
H       -0.9598050999    1.1817428380   -1.4783450820
H       -1.9852343771    1.9435375916   -0.2747224066
H       -2.2761232006   -0.1787983295    0.9338421649
H       -2.7305682463   -0.4074018868   -0.7502808785
H        0.4299218281    2.3825639403    0.1711659082
H       -0.3361289736    1.5018431482    1.5006836360
H        0.0931359170   -1.0501929332    1.7325032900
H        1.1207544789   -1.8634495788    0.5688661863
H       -1.3364704541   -2.2665808228    0.2440604864
H        1.3858209652    0.2709191312   -0.7177356962
H        0.2029372476   -2.5533600725   -1.6782783760
H       -0.0349701198   -0.8744976431   -2.1661346327
H       -1.3931123610   -1.9993734154   -2.2065080655
H        3.1845021143    2.0041941746    2.9884016784
H        2.0108164334    2.8192390360    1.9102018764
H        1.4460307457    1.6078297702    3.1249619962
27   
torsion grid (30,)
C       -1.2192770296    1.1644437393   -0.5000320346
C       -1.8632507993   -0.1676672916   -0.0899621785
C        0.0223791843    1.4702209746    0.3542323441
C        0.3873564995   -1.0098121955    0.7045160247
C       -0.8690031697   -1.3448105397   -0.1273860089
C        1.0196860236    0.3104607919    0.2517447593
C       -0.5180738371   -1.7714379441   -1.5617440724
C        2.1671950184    1.7224373634    2.5522522658
O        3.4457851996    1.4388144448    0.2610227252
O        3.0946858107   -0.6258528120    1.7280928637
S        2.5927385448    0.6400143314    1.1626664632
H       -0.9358036182    1.1411108568   -1.5587892313
H       -1.9426331219    1.9800908458   -0.3914128041
H       -2.2565989056   -0.0681033048    0.9308115825
H       -2.7221092512   -0.3841754109   -0.7358534789
H        0.4848508019    2.4082930178    0.0291324903
H       -0.2911095021    1.5959668359    1.3971852369
H        0.1056710181   -0.9241816091    1.7618530794
H        1.1198694388   -1.8177845757    0.6409228581
H       -1.3492736655   -2.2048110732    0.3556759032
H        1.3967057188    0.2351050478   -0.7730789272
H        0.1715931174   -2.6221736759   -1.5572528203
H       -0.0446357744   -0.9694633831   -2.1367500703
H       -1.4196462922   -2.0734445860   -2.1055981194
H        3.1067473410    1.8564570858    3.0919495041
H        1.8064804576    2.6792743284    2.1773697060
H        1.4325697349    1.2343308278    3.1950339342
27   
torsion grid (45,)
C       -1.2010445152    1.1789074007   -0.5801950089
C       -1.8520233448   -0.1248036777   -0.0951407260
C        0.0446683318    1.5226948916    0.2526331561
C        0.3948794999   -0.9420373408    0.7387568108
C       -0.8680440960   -1.3115328541   -0.0694428951
C        1.0296614088    0.3492659113    0.2130876297
C       -0.5246089627   -1.8204904602   -1.4782951249
C        2.1232570232    1.5255856997    2.6396202793
O        3.3014584307    1.7544147905    0.2811644698
O        3.2739247968   -0.5358368845    1.4169068089
S        2.6005878947    0.7324664132    1.0821057785
H       -0.9204280576    1.0953259699   -1.6367364868
H       -1.9200232893    2.0029813816   -0.5155870614
H       -2.2413722650    0.0342671155    0.9197100337
H       -2.7148288303   -0.3708826563   -0.7249628158
H        0.5212453624    2.4346598659   -0.1204275447
H       -0.2663587832    1.7070549375    1.2879807786
H        0.1131949654   -0.7999447578    1.7905103585
H        1.1242534765   -1.7552151919    0.7114269139
H       -1.3549031625   -2.1385107429    0.4622486600
H        1.3993881948    0.2108749138   -0.8089523343
H        0.1576740475   -2.6756703451   -1.4281312775
H       -0.0459597168   -1.0556776726   -2.0978672851
H       -1.4303438061   -2.1438284645   -2.0025075065
H        3.0577126716    1.6441572569    3.1915042096
H        1.6784013996    2.4983662790    2.4336510866
H        1.4425302683    0.8767103109    3.1935410879
27   
torsion grid (60,)
C       -1.1952910985    1.1851970427   -0.6676152568
C       -1.8514165675   -0.0873278042   -0.1113257314
C        0.0512460227    1.5752468360    0.1432402138
C        0.3854776636   -0.8669422398    0.7784933210
C       -0.8725220173   -1.2751116612   -0.0194130183
C        1.0256616052    0.3944737040    0.1909614882
C       -0.5222322776   -1.8573085789   -1.3977825997
C        2.1279507553    1.3160954662    2.7173421863
O        3.1420944682    2.0216990726    0.3708522460
O        3.4026236267   -0.4012585301    1.1448485129
S        2.5917186189    0.8258703979    1.0362097512
H       -0.9144042767    1.0400545184   -1.7174979971
H       -1.9124276232    2.0132056521   -0.6520128020
H       -2.2411968404    0.1285617442    0.8928349861
H       -2.7144175600   -0.3650733154   -0.7275710760
H        0.5420198019    2.4517471446   -0.2885048405
H       -0.2593079037    1.8377324261    1.1627349036
H        0.0893407779   -0.6705318492    1.8169915386
H        1.1133219151   -1.6825941947    0.7962145994
H       -1.3654379581   -2.0721943146    0.5510214397
H        1.4046915583    0.1908609757   -0.8176384977
H        0.1546095698   -2.7126033878   -1.2992584167
H       -0.0350977772   -1.1280197845   -2.0523850298
H       -1.4265369337   -2.2019508334   -1.9107542169
H        3.0741284694    1.5272083655    3.2192669830
H        1.5119861245    2.2146372501    2.6822804951
H        1.6163167988    0.4916279873    3.2150688128
27   
torsion grid (75,)
C       -1.1908922805    1.1895948147   -0.7582749783
C       -1.8564104116   -0.0484810554   -0.1386294985
C        0.0491403393    1.6257313396    0.0389719439
C        0.3623973401   -0.7802309257    0.8253254106
C       -0.8824303811   -1.2319523441    0.0300998918
C        1.0136254365    0.4454048967    0.1772857513
C       -0.5126705925   -1.8886122764   -1.3089106095
C        2.1628857943    1.0878064362    2.7661599262
O        2.9727044571    2.2506321904    0.5189045425
O        3.5016761346   -0.2227734368    0.8920338025
S        2.5747417592    0.9185383681    1.0103586432
H       -0.9000416503    0.9834503553   -1.7952907255
H       -1.9068191095    2.0177767783   -0.7984492162
H       -2.2560973056    0.2234284129    0.8478841527
H       -2.7136005662   -0.3585375541   -0.7475219060
H        0.5537690232    2.4666694370   -0.4423585337
H       -0.2662026233    1.9628112974    1.0356617835
H        0.0446718721   -0.5242385912    1.8435809309
H        1.0871625183   -1.5966522401    0.9000734346
H       -1.3851978650   -1.9961489069    0.6359409521
H        1.4050661215    0.1762233580   -0.8111870511
H        0.1632408558   -2.7363812170   -1.1544147770
H       -0.0170329950   -1.1960030577   -1.9959474190
H       -1.4098326035   -2.2620609083   -1.8141171164
H        3.0720923271    1.4698305930    3.2343019540
H        1.3500484141    1.8055379509    2.8872750387
H        1.9069049336    0.1119383748    3.1778456676
27   
torsion grid (90,)
C       -1.1901699541    1.1835591042   -0.8508515396
C       -1.8694274648   -0.0204048889   -0.1810857044
C        0.0292561811    1.6661671827   -0.0490221583
C        0.3245086562   -0.6945658418    0.8763162009
C       -0.8992120105   -1.1912990748    0.0741953364
C        0.9887562769    0.4969779613    0.1799973576
C       -0.4954074606   -1.9180430204   -1.2178024684
C        2.2408640345    0.8757819274    2.7871217349
O        2.7769898496    2.4502382872    0.7118340902
O        3.5715660017    0.0201624811    0.6697675570
S        2.5443648834    1.0244973154    1.0071927970
H       -0.8742291325    0.9214157710   -1.8677989768
H       -1.9061427501    2.0062547639   -0.9537433876
H       -2.2921434245    0.3036557456    0.7797121916
H       -2.7119300581   -0.3651989694   -0.7918058840
H        0.5465641529    2.4790494040   -0.5629033036
H       -0.3057200234    2.0622583270    0.9192060754
H       -0.0188846058   -0.3885753532    1.8716399006
H        1.0455154139   -1.5082403724    1.0083036618
H       -1.4162548016   -1.9229526397    0.7076700973
H        1.3989986493    0.1706512579   -0.7827054545
H        0.1750124505   -2.7566341931   -1.0012533954
H        0.0187632952   -1.2630885355   -1.9275577387
H       -1.3797887268   -2.3179049677   -1.7252674021
H        3.1370717820    1.2821316161    3.2599426211
H        1.3690122586    1.4710448894    3.0649909610
H        2.1149654694   -0.1736360877    3.0505088256
27   
torsion grid (105,)
C       -1.1830330459    1.1686841397   -0.9440108263
C       -1.8863921262    0.0041713692   -0.2317925829
C        0.0110854487    1.6922586694   -0.1305006354
C        0.2763103675   -0.6161317497    0.9227426179
C       -0.9261748151   -1.1513832526    0.1125348848
C        0.9645196768    0.5389001732    0.1890297138
C       -0.4865406885   -1.9445132465   -1.1279240659
C        2.3454545297    0.6811259683    2.7846201456
O        2.5421235954    2.6076501383    0.9693547803
O        3.6161704073    0.3338484798    0.4990287359
S        2.4989473115    1.1352085890    1.0368642170
H       -0.8375353103    0.8511137128   -1.9352681515
H       -1.8923039304    1.9862065195   -1.1132318006
H       -2.3364390606    0.3790228942    0.6974584546
H       -2.7108416114   -0.3728121815   -0.8481497115
H        0.5414905858    2.4799114702   -0.6696228214
H       -0.3487272999    2.1393945104    0.8050026796
H       -0.0897079479   -0.2648346170    1.8947328723
H        0.9858074851   -1.4296267064    1.1093302807
H       -1.4616169834   -1.8493205176    0.7684244384
H        1.4068749727    0.1634769975   -0.7397098283
H        0.1745376217   -2.7721544842   -0.8489330331
H        0.0502956386   -1.3278127625   -1.8548083757
H       -1.3568003478   -2.3689825882   -1.6397144558
H        3.2516309060    1.0742835465    3.2496499480
H        1.4650195895    1.1584825905    3.2180082118
H        2.3087439737   -0.4028655727    2.8834863028
27   
torsion grid (120,)
C       -1.1608075453    1.1517650512   -1.0316367886
C       -1.9006653802    0.0324774809   -0.2863146920
C        0.0102697680    1.7031940002   -0.2036210872
C        0.2194765458   -0.5432932979    0.9671465068
C       -0.9629032930   -1.1099688969    0.1485546352
C        0.9504130211    0.5628740154    0.1972057522
C       -0.4919053763   -1.9706847596   -1.0339753606
C        2.4670973613    0.4990125887    2.7443121172
O        2.2583226382    2.6883147288    1.2854695319
O        3.6274711483    0.7272444044    0.3772045710
S        2.4390586778    1.2373639773    1.0885563625
H       -0.7874251849    0.7829856374   -1.9946349694
H       -1.8539723934    1.9679235014   -1.2628885246
H       -2.3766099858    0.4588746424    0.6070084028
H       -2.7083067713   -0.3692251325   -0.9092956802
H        0.5572418721    2.4648946870   -0.7643592184
H       -0.3683174442    2.1942364864    0.7000930529
H       -0.1721173295   -0.1354239868    1.9066509941
H        0.9053423924   -1.3582074764    1.2217034675
H       -1.5247008380   -1.7681326707    0.8233238119
H        1.4284782058    0.1399293668   -0.6907864772
H        0.1498746331   -2.7896532356   -0.6910601716
H        0.0750884621   -1.3973762185   -1.7733950527
H       -1.3496538060   -2.4128754513   -1.5518211370
H        3.3396750131    0.9488005986    3.2221464740
H        1.5616325703    0.7693309164    3.2882878255
H        2.5908419814   -0.5810788673    2.6727276487
27   
torsion grid (135,)
C       -1.2972893032    1.1606308501   -0.3127578265
C       -1.7359920882   -0.2344899319    0.1515154964
C        0.0843260490    1.5313987906    0.2475658688
C        0.6882640451   -0.9222201790    0.3651345278
C       -0.6985570204   -1.3213349680   -0.1873129390
C        1.1156924499    0.4637368067   -0.1360041957
C       -0.6532033510   -1.6467905234   -1.6884262545
C        3.5612532403   -0.4525669777    1.2636543098
O        2.5882428533    1.9690270853    1.5769318856
O        3.5997581983    1.3478733123   -0.6890933101
S        2.7860247576    0.9916561575    0.4888024758
H       -1.2758102355    1.2072854185   -1.4082209992
H       -2.0282777487    1.9089190696    0.0125296130
H       -1.8835234795   -0.2134369638    1.2395252245
H       -2.7043129453   -0.4957455456   -0.2911042344
H        0.3967257976    2.5116995711   -0.1234829334
H        0.0430071651    1.6089405700    1.3386592510
H        0.6365459474   -0.9065674312    1.4607942761
H        1.4195724404   -1.6859119656    0.0814740186
H       -0.9913195303   -2.2413381614    0.3342192647
H        1.2757707581    0.4484888443   -1.2169804678
H        0.0751730559   -2.4385435447   -1.8960683980
H       -0.3802724508   -0.7808856161   -2.2989899104
H       -1.6319666040   -1.9947770529   -2.0352543636
H        4.5206854894   -0.0768331479    1.6247977088
H        2.9535784028   -0.7969886405    2.0997779521
H        3.7197648315   -1.2383034680    0.5243590924
27   
torsion grid (150,)
C       -1.2827520964    1.1744483302   -0.3980448820
C       -1.7553461750   -0.1904675101    0.1190150222
C        0.0812761839    1.5542631217    0.1965058582
C        0.6537686344   -0.8959568872    0.4432317371
C       -0.7209364236   -1.3034558722   -0.1319329499
C        1.1178986843    0.4622841027   -0.1009764821
C       -0.6314292998   -1.7005260908   -1.6139585238
C        3.6315779246   -0.4987751022    1.0840840918
O        2.4496480522    1.7050898773    1.8963730392
O        3.4921593725    1.6803916755   -0.4397662071
S        2.7296112322    1.0052710283    0.6268522721
H       -1.2213290513    1.1666204208   -1.4929474055
H       -2.0143514123    1.9466924122   -0.1364719374
H       -1.9382198713   -0.1137842699    1.1989592301
H       -2.7114850380   -0.4625647808   -0.3431460403
H        0.4186348530    2.5148122434   -0.2053317382
H        0.0010413876    1.6736054763    1.2812841251
H        0.5765373694   -0.8295146253    1.5356287238
H        1.3807586338   -1.6810115329    0.2121889105
H       -1.0423936815   -2.1941315838    0.4224746291
H        1.3356816401    0.4074657399   -1.1709069216
H        0.0899870575   -2.5124216309   -1.7593183841
H       -0.3235904521   -0.8683557867   -2.2543732694
H       -1.6035458614   -2.0496844566   -1.9779175809
H        4.5903938655   -0.1352767124    1.4592203700
H        3.0935179634   -1.0260988287    1.8706581672
H        3.7867472331   -1.1259963996    0.2046612787
27   
torsion grid (165,)
C       -1.2575613520    1.1859646791   -0.4753746174
C       -1.7737339734   -0.1479201572    0.0800435556
C        0.0877987814    1.5695127023    0.1574680662
C        0.6066649097   -0.8835808902    0.5274248794
C       -0.7521068032   -1.2885291342   -0.0853347636
C        1.1157609116    0.4463129153   -0.0440254452
C       -0.6119076080   -1.7450567352   -1.5462128463
C        3.7007846966   -0.4990640628    0.9067886830
O        2.3594529075    1.4127011092    2.1407915752
O        3.3578241267    1.9149174029   -0.1604621081
S        2.6765581667    0.9885627778    0.7630341269
H       -1.1522087226    1.1298224387   -1.5655205281
H       -1.9857532752    1.9799184072   -0.2769819175
H       -1.9944774224   -0.0226266171    1.1482323462
H       -2.7172654468   -0.4225600679   -0.4059516972
H        0.4631154514    2.5026930735   -0.2736208710
H       -0.0392051319    1.7358113160    1.2321618785
H        0.4962110060   -0.7753218393    1.6130828053
H        1.3282980871   -1.6875198808    0.3492966807
H       -1.1132149411   -2.1502621815    0.4898803284
H        1.3874400266    0.3533639828   -1.0998701916
H        0.0948705551   -2.5783039050   -1.6300490062
H       -0.2573367381   -0.9453680309   -2.2038858725
H       -1.5761301216   -2.0856462784   -1.9382555185
H        4.6681540936   -0.1385746052    1.2621639074
H        3.2590442533   -1.1789161439    1.6341755768
H        3.8127842878   -0.9674079169   -0.0729538939
27   
torsion grid (180,)
C       -1.2232997826    1.1940272422   -0.5470753904
C       -1.7923227972   -0.1075573870    0.0338293653
C        0.1002196555    1.5777921111    0.1307337678
C        0.5456397706   -0.8770099667    0.6179683173
C       -0.7915622848   -1.2761466908   -0.0432808129
C        1.1065197758    0.4219847214    0.0275198850
C       -0.5967597761   -1.7900492928   -1.4785605816
C        3.7681839533   -0.4594662349    0.7267802925
O        2.3342171095    1.1048171399    2.3256652777
O        3.2192002274    2.0661631784    0.1275593831
S        2.6369772844    0.9461891201    0.8903464953
H       -1.0688484666    1.0930209984   -1.6282001157
H       -1.9438566124    2.0083364208   -0.4140356313
H       -2.0561877903    0.0626920045    1.0858847966
H       -2.7202369305   -0.3797361388   -0.4827291173
H        0.5213125694    2.4796957644   -0.3220625722
H       -0.0775666391    1.7941252897    1.1902180796
H        0.3927561800   -0.7275427352    1.6925760607
H        1.2608611829   -1.6987008431    0.5019560669
H       -1.1994149649   -2.1071019147    0.5457044545
H        1.4218814914    0.2894045910   -1.0128768830
H        0.0912591799   -2.6427582418   -1.4990839890
H       -0.1918006304   -1.0241091449   -2.1474744885
H       -1.5502983579   -2.1215131522   -1.9033508606
H        4.7287852758   -0.0977569989    1.0984426301
H        3.4147377837   -1.2910053988    1.3356715497
H        3.8534643183   -0.7348720831   -0.3260808470
