20   
torsion grid (-165,)
C        2.0582766848   -0.7053973819   -1.4505195818
C        2.2501922182   -2.0352413440   -1.4293650017
C        0.5940220811   -0.3302974322   -1.3686710827
C        0.9243011097   -2.7693266384   -1.3200739018
C       -0.0822291398   -1.6576208882   -0.9377599344
C        4.8111348746   -2.1519594685   -1.9880947657
C        4.6579968057   -2.4672432765   -0.5224974749
C        3.5263229641   -2.7906182675   -1.4970985629
H        2.8444070994    0.0375684092   -1.5656670847
H        0.3986894192    0.4842382586   -0.6609972729
H        0.2281804801    0.0137106315   -2.3472884132
H        0.6754040679   -3.2348700699   -2.2849589740
H        0.9564531026   -3.5800408227   -0.5820973094
H       -0.2197003078   -1.6551857120    0.1485706457
H       -1.0673184897   -1.8005368801   -1.3915080948
H        4.7616701676   -1.1123410743   -2.2971275966
H        5.4861983953   -2.7652573511   -2.5782051172
H        5.2288394921   -3.2935267757   -0.1075852605
H        4.4797322116   -1.6416867879    0.1598290230
H        3.4097492309   -3.8487945749   -1.7189648395
20   
torsion grid (-150,)
C        2.0301572742   -0.6956672197   -1.6210920973
C        2.2520331740   -2.0162112427   -1.5156480872
C        0.5703823564   -0.3373292031   -1.4433299849
C        0.9566433676   -2.7616789955   -1.2413433563
C       -0.0419840881   -1.6399538920   -0.8654161180
C        4.8515200251   -2.0611179821   -1.8819446871
C        4.5753830305   -2.6077914569   -0.5015811614
C        3.5353971583   -2.7539377595   -1.6122976908
H        2.7879393105    0.0459648682   -1.8616223397
H        0.4182633251    0.5228941545   -0.7805275688
H        0.1194026756   -0.0683244185   -2.4096836938
H        0.6416259238   -3.3063724890   -2.1433164470
H        1.0677921476   -3.5103940410   -0.4478110148
H       -0.0981210923   -1.5586086727    0.2251188231
H       -1.0551285986   -1.8319099524   -1.2305741792
H        4.8391279908   -0.9837851561   -2.0135255642
H        5.5761905324   -2.5791726822   -2.5034603438
H        5.1099898691   -3.4971709546   -0.1790565634
H        4.3447133250   -1.8969167879    0.2860909724
H        3.4409947606   -3.7669435633   -1.9990594979
20   
torsion grid (-135,)
C        2.0033688359   -0.6938736000   -1.7441533039
C        2.2549816242   -1.9989091725   -1.5537195646
C        0.5484135213   -0.3458348992   -1.5152511184
C        0.9894927457   -2.7437791675   -1.1633149183
C       -0.0082821984   -1.6124968141   -0.8136269224
C        4.8673059783   -1.9960387276   -1.7816532346
C        4.5191892769   -2.7402482155   -0.5108530366
C        3.5452373189   -2.7190950189   -1.6847402478
H        2.7364148792    0.0358096909   -2.0789142907
H        0.4138542538    0.5585213700   -0.9099899791
H        0.0442304368   -0.1559261885   -2.4739965230
H        0.6381367473   -3.3530806093   -2.0087455838
H        1.1546062710   -3.4347876225   -0.3281436808
H       -0.0071855693   -1.4536363706    0.2698155328
H       -1.0360010033   -1.8443784272   -1.1080043843
H        4.8578622041   -0.9112780835   -1.7465171295
H        5.6297380756   -2.4170497956   -2.4306314535
H        5.0412909430   -3.6676992756   -0.2920048574
H        4.2506383999   -2.1476684199    0.3588054832
H        3.4790297265   -3.6629780996   -2.2244413876
20   
torsion grid (-120,)
C        1.9755012438   -0.6973906459   -1.8419512390
C        2.2600597045   -1.9799863784   -1.5674752337
C        0.5236383843   -0.3586510356   -1.5833966704
C        1.0237554525   -2.7190869543   -1.0843574909
C        0.0176144689   -1.5829691539   -0.7755606046
C        4.8745798009   -1.9476846422   -1.6829960807
C        4.4813089808   -2.8619206676   -0.5403567621
C        3.5566869659   -2.6839253435   -1.7350148398
H        2.6859672767    0.0167418250   -2.2512039274
H        0.3929470117    0.5838887296   -1.0386394514
H       -0.0177219681   -0.2459985271   -2.5339913947
H        0.6546112847   -3.3894413092   -1.8742344390
H        1.2309003870   -3.3501752260   -0.2121560062
H        0.0552937657   -1.3490652681    0.2935533786
H       -1.0155919367   -1.8514821235   -1.0141774340
H        4.8507772884   -0.8782993827   -1.4980468043
H        5.6678462216   -2.2723482243   -2.3502018287
H        5.0042258004   -3.8076407808   -0.4280566545
H        4.1791476649   -2.3931205468    0.3919457523
H        3.5207746696   -3.5358717913   -2.4137628695
20   
torsion grid (-105,)
C        1.9451687582   -0.7022756011   -1.9271956412
C        2.2670658040   -1.9552290779   -1.5706808457
C        0.4942484814   -0.3761187050   -1.6494777244
C        1.0608144401   -2.6856786633   -1.0054114557
C        0.0398068028   -1.5511429320   -0.7433796734
C        4.8807355835   -1.9169938219   -1.5810280213
C        4.4520896258   -2.9774769725   -0.5857283569
C        3.5690589274   -2.6448939156   -1.7736221484
H        2.6312687553   -0.0048359568   -2.4022865978
H        0.3570275717    0.6000070045   -1.1693713013
H       -0.0759377843   -0.3434622602   -2.5892997121
H        0.6848138514   -3.4138045636   -1.7390107860
H        1.3044585180   -3.2546759415   -0.1007140412
H        0.1049642754   -1.2425939063    0.3053105712
H       -0.9940957965   -1.8556668566   -0.9299432107
H        4.8386862270   -0.8814090033   -1.2577661783
H        5.6996501978   -2.1485055520   -2.2561448041
H        4.9786484447   -3.9277178422   -0.5808274551
H        4.1185918521   -2.6376878576    0.3910381253
H        3.5652579317   -3.3842650216   -2.5745413429
20   
torsion grid (-90,)
C        1.6224234492   -1.6076152042   -0.0643321960
C        2.4083725513   -1.6233491603   -1.1518093163
C        0.2264227741   -1.1090266434   -0.3651205407
C        1.6580306151   -1.1085537545   -2.3689956010
C        0.1775950107   -1.1260422643   -1.9159735494
C        4.3999568348   -3.2210136953   -0.5922476636
C        4.3915729803   -3.0358501787   -2.0966362998
C        3.8642742574   -1.9385029285   -1.1961990415
H        1.9537554925   -1.8846723556    0.9341409127
H       -0.5584005492   -1.7273488446    0.0863791986
H        0.0903322394   -0.0931775470    0.0337992728
H        1.9989980699   -0.0927552558   -2.6174677436
H        1.8359256367   -1.7203955390   -3.2607137854
H       -0.2910837641   -2.0574316675   -2.2508601584
H       -0.4059909989   -0.2994125284   -2.3313964876
H        3.6781522165   -3.9118355472   -0.1672571675
H        5.3549943970   -3.1858868144   -0.0756939941
H        5.3387901758   -2.8798867893   -2.6050871194
H        3.6626376142   -3.6078093298   -2.6643475625
H        4.5155634647   -1.0738613988   -1.0702617573
20   
torsion grid (-75,)
C        1.6272117525   -1.5077881986   -0.0227434018
C        2.4038782722   -1.6277101675   -1.1107920151
C        0.2333355887   -1.0252236975   -0.3575738524
C        1.6457142261   -1.2213013805   -2.3643656461
C        0.1700833649   -1.1877866626   -1.8992238074
C        4.3571466543   -3.3161380651   -0.6803320489
C        4.4465165104   -2.9077327388   -2.1352696533
C        3.8621014587   -1.9493361298   -1.1200009970
H        1.9643393171   -1.6938648632    0.9950160268
H       -0.5528363574   -1.5908266709    0.1563469781
H        0.1098691722    0.0249191355   -0.0548626492
H        1.9918733004   -0.2347726770   -2.7059488711
H        1.8080761600   -1.9100160193   -3.2010159773
H       -0.3054058259   -2.1444149023   -2.1402724407
H       -0.4132423360   -0.4012046198   -2.3866268065
H        3.6064552430   -4.0513095785   -0.4067357233
H        5.2754088448   -3.3654934834   -0.1018019732
H        5.4250076117   -2.6872455835   -2.5522458780
H        3.7594403603   -3.3831625946   -2.8295394831
H        4.5073491495   -1.1240185494   -0.8220923805
20   
torsion grid (-60,)
C        1.6377222950   -1.3818720645    0.0128769685
C        2.4084440954   -1.6143701004   -1.0616845124
C        0.2419389565   -0.9318767857   -0.3562970475
C        1.6327577384   -1.3593544988   -2.3444591733
C        0.1626700836   -1.2634833135   -1.8691304899
C        4.2989716566   -3.4125426618   -0.8118103053
C        4.5136297124   -2.7502535381   -2.1529796095
C        3.8590691821   -1.9725532931   -1.0293928139
H        1.9836851812   -1.4539165096    1.0421376724
H       -0.5399279747   -1.4360144517    0.2240470457
H        0.1229340744    0.1453135341   -0.1687961660
H        1.9799996918   -0.4247618865   -2.8083453555
H        1.7745009120   -2.1445727044   -3.0952928292
H       -0.3207053851   -2.2376980907   -1.9978954153
H       -0.4209881046   -0.5323650950   -2.4359398821
H        3.5154200300   -4.1603797540   -0.7346107843
H        5.1625183496   -3.5911321543   -0.1771843799
H        5.5260878917   -2.4809468071   -2.4398622611
H        3.8873840931   -3.0742376602   -2.9786246046
H        4.4962099879   -1.2274096114   -0.5568366569
20   
torsion grid (-45,)
C        1.6564569286   -1.2348670595    0.0409732464
C        2.4217166812   -1.5889257260   -1.0044271576
C        0.2568406996   -0.8342861170   -0.3683547077
C        1.6281511990   -1.5267196840   -2.2991828516
C        0.1631935719   -1.3526259766   -1.8270744148
C        4.2224585684   -3.4860376477   -0.9952055150
C        4.5788523091   -2.5688017355   -2.1394960425
C        3.8483829844   -2.0132582252   -0.9284844174
H        2.0104609112   -1.1785757969    1.0684808124
H       -0.5174635115   -1.2654183601    0.2772903040
H        0.1339265225    0.2572330696   -0.3145296298
H        1.9731802055   -0.6794491210   -2.9085792869
H        1.7528126631   -2.4217840560   -2.9199259216
H       -0.3342596749   -2.3280487434   -1.8310273150
H       -0.4148772009   -0.6901750508   -2.4778116212
H        3.4092589747   -4.1906461008   -1.1446072301
H        5.0146949740   -3.8414538473   -0.3424256529
H        5.6209800440   -2.2914536383   -2.2695521123
H        4.0267687546   -2.6771184294   -3.0676404247
H        4.4707868628   -1.3920152007   -0.2885006618
20   
torsion grid (-30,)
C        1.6721119424   -1.1331132280    0.0455798219
C        2.4202499116   -1.6053653688   -0.9654952957
C        0.2747806394   -0.7530641659   -0.3915184156
C        1.6156400312   -1.6529711228   -2.2539705848
C        0.1578609449   -1.4230389985   -1.7849879619
C        4.1848021975   -3.5193831109   -1.1506864411
C        4.6242421941   -2.4390359175   -2.1067925756
C        3.8270999807   -2.0675282924   -0.8652707715
H        2.0368981058   -0.9798594821    1.0592195980
H       -0.4996790662   -1.1001578958    0.3027217040
H        0.1693287737    0.3398910310   -0.4540989607
H        1.9586198410   -0.8629121404   -2.9368084894
H        1.7284605656   -2.5998438440   -2.7958469666
H       -0.3418750874   -2.3913542813   -1.6770268099
H       -0.4268990160   -0.8315557311   -2.4954829807
H        3.3753813846   -4.1742366313   -1.4604605056
H        4.9294065865   -3.9906070326   -0.5157747097
H        5.6759890961   -2.1684941340   -2.1284634420
H        4.1274639209   -2.3802571590   -3.0700954089
H        4.4124395212   -1.5715399414   -0.0948214046
20   
torsion grid (-15,)
C        1.6847176955   -1.0681996999    0.0343022899
C        2.4031126289   -1.6521246625   -0.9397822305
C        0.2944813590   -0.6826961126   -0.4208413370
C        1.5872328996   -1.7583910219   -2.2179794914
C        0.1410152836   -1.4659767657   -1.7497267378
C        4.1843908886   -3.5331133603   -1.2723107652
C        4.6643619653   -2.3398326326   -2.0590590100
C        3.7996658168   -2.1288869568   -0.8240432257
H        2.0654382706   -0.8452344824    1.0288626129
H       -0.4829601612   -0.9417369051    0.3075687638
H        0.2238535716    0.4035213778   -0.5792618631
H        1.9368399277   -1.0125341547   -2.9457235238
H        1.6749250133   -2.7354100642   -2.7079566012
H       -0.3711397534   -2.4133083280   -1.5512885152
H       -0.4459439890   -0.9266223073   -2.4989466971
H        3.4053826708   -4.1516170584   -1.7080244783
H        4.8995420476   -4.0751950980   -0.6605711981
H        5.7128952092   -2.0644962681   -1.9926189942
H        4.2129712526   -2.1587665382   -3.0295524023
H        4.3315398704   -1.7538064077    0.0468728042
20   
torsion grid (0,)
C        1.7004358867   -1.0190336622    0.0121775106
C        2.3785369095   -1.7124849177   -0.9184459449
C        0.3191743277   -0.6161622367   -0.4542340689
C        1.5441582008   -1.8717688272   -2.1794836592
C        0.1166564509   -1.4920248753   -1.7167262606
C        4.2032115046   -3.5310783649   -1.3890502730
C        4.7018558399   -2.2433245924   -1.9946754040
C        3.7697436016   -2.1983420279   -0.7912244643
H        2.1055114730   -0.7325247958    0.9804781528
H       -0.4572171802   -0.7873831320    0.3007760364
H        0.2886332571    0.4566702521   -0.6954484169
H        1.9097982488   -1.1880228316   -2.9586394870
H        1.5873336027   -2.8809278760   -2.6046676148
H       -0.4249140415   -2.4023582565   -1.4391031849
H       -0.4626291245   -0.9906508193   -2.4976230958
H        3.4660716681   -4.1033054873   -1.9435377709
H        4.8972761364   -4.1337259272   -0.8106022144
H        5.7396392613   -1.9636370260   -1.8383853225
H        4.2963417546   -1.9463268828   -2.9569080001
H        4.2427046899   -1.9480151601    0.1552428820
20   
torsion grid (15,)
C        1.7227147317   -0.9762059525   -0.0208050625
C        2.3526432931   -1.7749368070   -0.8994143952
C        0.3504897892   -0.5535259047   -0.4946029143
C        1.4898470653   -2.0006659647   -2.1306736870
C        0.0900061620   -1.5090631966   -1.6869132863
C        4.2289225107   -3.5075640342   -1.5111918203
C        4.7364478555   -2.1438741815   -1.9088538853
C        3.7399056793   -2.2746453927   -0.7641525291
H        2.1591553717   -0.6277985199    0.9130383457
H       -0.4186178832   -0.6378751393    0.2823581274
H        0.3586360804    0.4996755466   -0.8118917404
H        1.8748346023   -1.4125578946   -2.9760710304
H        1.4739034720   -3.0456433160   -2.4589708983
H       -0.4976023657   -2.3652520232   -1.3398785863
H       -0.4692970054   -1.0360204528   -2.4993490581
H        3.5381566022   -4.0066587022   -2.1831169961
H        4.9038665500   -4.1755610997   -0.9840831493
H        5.7582159735   -1.8738345553   -1.6583323536
H        4.3754194853   -1.7214698627   -2.8416609348
H        4.1546744977   -2.1609499935    0.2344852541
20   
torsion grid (30,)
C        1.7520908002   -0.9333686869   -0.0645929620
C        2.3315606911   -1.8281556790   -0.8825723337
C        0.3866826279   -0.4982015455   -0.5458255505
C        1.4334486845   -2.1294212023   -2.0711865120
C        0.0659303492   -1.5319409016   -1.6557542770
C        4.2464957314   -3.4589749232   -1.6390406307
C        4.7670166595   -2.0521477000   -1.8025437063
C        3.7138123856   -2.3519378040   -0.7437611504
H        2.2229936400   -0.5228864241    0.8264146910
H       -0.3696220038   -0.4906659976    0.2480738359
H        0.4292809207    0.5262016441   -0.9444128955
H        1.8275562720   -1.6516467481   -2.9801708436
H        1.3646971510   -3.2010825905   -2.2875363322
H       -0.5596633898   -2.3270915366   -1.2374718645
H       -0.4795834857   -1.0968538676   -2.4981429137
H        3.5948779214   -3.8480538308   -2.4148804414
H        4.8998431373   -4.2009455474   -1.1890883334
H        5.7729302581   -1.8234176656   -1.4626260789
H        4.4475628550   -1.4915740468   -2.6761964933
H        4.0744112619   -2.3922623930    0.2812341922
20   
torsion grid (45,)
C        1.7910547704   -0.8810465705   -0.1340632689
C        2.3169734267   -1.8619174680   -0.8859870845
C        0.4212061775   -0.4508364074   -0.6079089374
C        1.3718259302   -2.2383055939   -2.0151042769
C        0.0351444015   -1.5693758076   -1.6100553906
C        4.2613274420   -3.3893420249   -1.7632695100
C        4.8091621148   -1.9856220440   -1.6702661886
C        3.6879045019   -2.4263912252   -0.7395508934
H        2.3022938486   -0.4083245570    0.7022176048
H       -0.3061024774   -0.3505237691    0.2064782440
H        0.4768820319    0.5325922062   -1.0977613942
H        1.7465658760   -1.8498760033   -2.9739799796
H        1.2749446519   -3.3229559669   -2.1362033243
H       -0.5944802150   -2.3067718621   -1.1016069971
H       -0.5293187154   -1.1947630762   -2.4688922632
H        3.6529678047   -3.6352815621   -2.6281486747
H        4.8777525514   -4.2080652569   -1.4031304143
H        5.7956105073   -1.8371634196   -1.2404039294
H        4.5485015917   -1.2855968934   -2.4588963420
H        3.9821062469   -2.6348601447    0.2864524203
20   
torsion grid (60,)
C        1.8419874580   -0.8238569003   -0.2399541905
C        2.3070764879   -1.8804892412   -0.9248699585
C        0.4557617941   -0.4078157881   -0.6790577529
C        1.2919840117   -2.3422818989   -1.9577127933
C       -0.0073930993   -1.6077459391   -1.5462770576
C        4.2940303531   -3.2918102679   -1.8903525661
C        4.8628614341   -1.9467339411   -1.5004781677
C        3.6549104781   -2.5045231017   -0.7640114542
H        2.4077075441   -0.2877034726    0.5194002675
H       -0.2214507240   -0.2147428177    0.1613427811
H        0.5006844981    0.5239863711   -1.2619486114
H        1.6171805622   -2.0536215817   -2.9681715425
H        1.1762224222   -3.4320485220   -1.9701302368
H       -0.6207352054   -2.2779259851   -0.9350863745
H       -0.6132418239   -1.3026775297   -2.4044929923
H        3.7562999851   -3.3566162561   -2.8316019443
H        4.8588545976   -4.1838985629   -1.6353156235
H        5.8134011543   -1.9160976316   -0.9753069976
H        4.6873507177   -1.1092264415   -2.1694422367
H        3.8588298218   -2.8885979387    0.2333868515
20   
torsion grid (75,)
C        1.8953544442   -0.7790172332   -0.3691324209
C        2.2982181756   -1.9003821597   -0.9859622497
C        0.4916143515   -0.3724834235   -0.7606786179
C        1.2055104689   -2.4415154909   -1.8938476628
C       -0.0506147564   -1.6409306553   -1.4709906749
C        4.3517610112   -3.1660339838   -2.0039889298
C        4.8980199620   -1.9329077052   -1.3161962670
C        3.6177208429   -2.5798998117   -0.8170827857
H        2.5186589244   -0.1902949714    0.3007553150
H       -0.1244587197   -0.0794707382    0.0975470739
H        0.5162607990    0.4953303267   -1.4360230020
H        1.4654306781   -2.2639375477   -2.9474180529
H        1.0742303987   -3.5246342545   -1.7879177662
H       -0.6300508090   -2.2328506029   -0.7547925103
H       -0.7108923202   -1.4078283986   -2.3114866380
H        3.9058204545   -3.0361577205   -2.9859815948
H        4.8778349929   -4.1071139697   -1.8716539121
H        5.7942216864   -2.0342247140   -0.7105030243
H        4.8031163487   -0.9824585003   -1.8327037398
H        3.7245655335   -3.1276158922    0.1179768600
20   
torsion grid (90,)
C        1.9410166952   -0.7565712830   -0.4801976445
C        2.2883791613   -1.9315020653   -1.0264227060
C        0.5274920447   -0.3480792564   -0.8322224368
C        1.1368904165   -2.5245018926   -1.8212792814
C       -0.0779109824   -1.6532348133   -1.4150268462
C        4.4038010694   -3.0402179298   -2.0858501817
C        4.9018936280   -1.9405475991   -1.1693746127
C        3.5905995638   -2.6406729593   -0.8724631368
H        2.6112046990   -0.1331571771    0.1077312914
H       -0.0364258510    0.0236251285    0.0313500547
H        0.5342856777    0.4657036800   -1.5719084458
H        1.3488648285   -2.4593050032   -2.8979926952
H        0.9857085686   -3.5882863811   -1.6027019289
H       -0.6450789355   -2.1671457430   -0.6320479848
H       -0.7651256976   -1.4673212320   -2.2455440076
H        4.0260545355   -2.7445565808   -3.0606831010
H        4.9176021038   -3.9972135350   -2.0732787492
H        5.7532633493   -2.1533021399   -0.5289892681
H        4.8516387324   -0.9193568733   -1.5347246964
H        3.6281688601   -3.3287837909   -0.0284542232
20   
torsion grid (105,)
C        1.9745004528   -0.7439329719   -0.5744413719
C        2.2783550360   -1.9630908587   -1.0448977899
C        0.5565074861   -0.3328403907   -0.9054698980
C        1.0875529094   -2.5861972416   -1.7536202635
C       -0.0951174555   -1.6651372535   -1.3632827817
C        4.4438221371   -2.9198105606   -2.1375811784
C        4.8949065533   -1.9625024398   -1.0519937950
C        3.5725125340   -2.6851714307   -0.9179613954
H        2.6758553810   -0.0948768177   -0.0551373243
H        0.0329522692    0.1169345481   -0.0537443981
H        0.5507908239    0.4204816452   -1.7066497701
H        1.2621727504   -2.5979278963   -2.8389600602
H        0.9254270702   -3.6295674493   -1.4575652999
H       -0.6356479110   -2.1087545947   -0.5207312086
H       -0.8145635539   -1.5281947818   -2.1758207527
H        4.1122427578   -2.4867620965   -3.0772508123
H        4.9544977820   -3.8738046555   -2.2336483160
H        5.7132596474   -2.2687730086   -0.4066255540
H        4.8684587724   -0.9009680135   -1.2777864915
H        3.5638370248   -3.4935311783   -0.1869121388
20   
torsion grid (120,)
C        2.0012328034   -0.7351605905   -0.6633566174
C        2.2699909775   -1.9909255162   -1.0533819299
C        0.5797875476   -0.3238059605   -0.9798245543
C        1.0479832292   -2.6370636640   -1.6843172623
C       -0.1071711601   -1.6741026621   -1.3152999567
C        4.4770522327   -2.7977335660   -2.1715446994
C        4.8868449675   -1.9994906890   -0.9509375966
C        3.5592772028   -2.7212781363   -0.9606035180
H        2.7252001290   -0.0626577974   -0.2096723789
H        0.0913506890    0.1986237416   -0.1489870918
H        0.5598711768    0.3663296709   -1.8359386101
H        1.1889869888   -2.7170043161   -2.7717650606
H        0.8792253486   -3.6575238008   -1.3197728039
H       -0.6182476785   -2.0486201463   -0.4222840614
H       -0.8568666010   -1.5846451098   -2.1068297198
H        4.1780373812   -2.2402197423   -3.0546855278
H        4.9864780930   -3.7355025665   -2.3749650322
H        5.6775925821   -2.3963051293   -0.3208014659
H        4.8775168030   -0.9173494458   -1.0346301758
H        3.5181797548   -3.6299920202   -0.3604825373
20   
torsion grid (135,)
C        2.0244949527   -0.7289692825   -0.7591822951
C        2.2631293046   -2.0143248371   -1.0657958079
C        0.5977729119   -0.3200985173   -1.0549152899
C        1.0117811630   -2.6802696571   -1.6138576875
C       -0.1172996489   -1.6802951953   -1.2656849451
C        4.5141359928   -2.6724912273   -2.1886078166
C        4.8769355574   -2.0503414801   -0.8582371304
C        3.5482638861   -2.7523922382   -1.0101700243
H        2.7685125078   -0.0341408938   -0.3777908252
H        0.1459681769    0.2697945477   -0.2488374458
H        0.5553443571    0.3045384646   -1.9592980343
H        1.1141236109   -2.8267141764   -2.6988645598
H        0.8427642522   -3.6741685818   -1.1821803848
H       -0.5931487335   -1.9851736803   -0.3278105879
H       -0.8988725668   -1.6366894728   -2.0297546418
H        4.2443658275   -2.0007422235   -2.9983436772
H        5.0267926198   -3.5797268064   -2.4962291286
H        5.6395047516   -2.5355417638   -0.2559763127
H        4.8770278970   -0.9670115989   -0.7935730169
H        3.4807256472   -3.7396688264   -0.5549709884
20   
torsion grid (150,)
C        2.0463387755   -0.7254857358   -0.8781986762
C        2.2575223796   -2.0335594021   -1.1002445359
C        0.6104411656   -0.3205449390   -1.1321550496
C        0.9738734369   -2.7180305114   -1.5406259964
C       -0.1267000226   -1.6826498305   -1.2069597407
C        4.5680303029   -2.5395045666   -2.1865192241
C        4.8591571311   -2.1180233174   -0.7661480099
C        3.5380368934   -2.7810462901   -1.0824251926
H        2.8126317351   -0.0106247909   -0.5887328089
H        0.2046958607    0.3325576173   -0.3505965428
H        0.5279970369    0.2363677106   -2.0772508526
H        1.0205255443   -2.9377409159   -2.6172288343
H        0.8164282700   -3.6781058449   -1.0344520894
H       -0.5548494431   -1.9142819012   -0.2261282533
H       -0.9468456848   -1.6841239569   -1.9307780138
H        4.3328112321   -1.7600659380   -2.9050762888
H        5.0957781622   -3.3979273782   -2.5931635540
H        5.5867780261   -2.6914646057   -0.1992962907
H        4.8530439903   -1.0564544999   -0.5403873162
H        3.4466276752   -3.8237183500   -0.7837133300
20   
torsion grid (165,)
C        2.0669699131   -0.7239689338   -1.0371092051
C        2.2531289973   -2.0476124271   -1.1774755856
C        0.6181404876   -0.3221075737   -1.2109625512
C        0.9353997885   -2.7465828024   -1.4684836905
C       -0.1297935180   -1.6775309971   -1.1277295899
C        4.6456991612   -2.4012812003   -2.1561468251
C        4.8196427301   -2.2101913356   -0.6717254595
C        3.5281026556   -2.8066392942   -1.1943660077
H        2.8573192913    0.0037174860   -0.8668541599
H        0.2760139318    0.3910600383   -0.4516850485
H        0.4664910429    0.1641863325   -2.1860628031
H        0.8969633899   -3.0429104891   -2.5270319224
H        0.8113532441   -3.6659211790   -0.8834266755
H       -0.4803775861   -1.8323729605   -0.1020066138
H       -1.0042547114   -1.7228713130   -1.7833767536
H        4.4586996769   -1.5216553815   -2.7646210340
H        5.2096624653   -3.1901771708   -2.6465107351
H        5.5025807806   -2.8706028740   -0.1451298901
H        4.7758903977   -1.2005364811   -0.2749870021
H        3.4146903290   -3.8804288902   -1.0643890475
20   
torsion grid (180,)
C        2.0731276547   -0.7195319449   -1.2381850476
C        2.2507952474   -2.0504448518   -1.2979081277
C        0.6122457722   -0.3271343319   -1.2877009805
C        0.9150308682   -2.7680552455   -1.3923434698
C       -0.1182034280   -1.6720110579   -1.0372134640
C        4.7355540407   -2.2636193905   -2.0892210960
C        4.7518219950   -2.3234748438   -0.5851584168
C        3.5250060999   -2.8117417467   -1.3428803300
H        2.8738575429    0.0168038687   -1.2092069926
H        0.3473019320    0.4345273653   -0.5446631387
H        0.3579281373    0.0958188571   -2.2708152677
H        0.7704800836   -3.1552321598   -2.4116448374
H        0.8581058909   -3.6328901328   -0.7201543498
H       -0.3759456110   -1.7499879948    0.0240912234
H       -1.0475750362   -1.7634667748   -1.6068525870
H        4.6119878689   -1.2945860042   -2.5633193237
H        5.3544079868   -2.9664754106   -2.6402055808
H        5.3825158453   -3.0665953809   -0.1052228194
H        4.6402448510   -1.3953205478   -0.0326119655
H        3.4036347260   -3.8910097190   -1.3888640285
