22   
torsion grid (-165,)
C        7.2453455300   -2.5817556346   -0.2644811084
C        7.1885764096   -1.5520494540    0.6812700175
C        6.1238941608   -2.8521287131   -1.0536504968
C        6.0166355864   -0.8074325640    0.8361409039
C        4.9526971279   -2.1031719561   -0.8967776801
C        4.8809720254   -1.0777060620    0.0569786905
C        2.3778257714   -0.8030207236   -0.4000990462
C        0.7485526509   -2.6563157140   -0.2334795314
C        3.6424113898   -0.2083478473    0.2146545707
N        1.8665467837   -1.8769647113    0.2792634304
O        1.8575587934   -0.3474213493   -1.4169723883
H        8.1549705744   -3.1639987362   -0.3865312071
H        8.0558756169   -1.3287199067    1.2975425317
H        6.1602889161   -3.6436559564   -1.7980037772
H        5.9814137682   -0.0079042353    1.5737527683
H        4.0955450100   -2.3135826896   -1.5308392588
H        0.1673543726   -3.0610807591    0.5995898957
H        1.0838665526   -3.4838411684   -0.8719179666
H        0.1155381921   -1.9972091515   -0.8282460033
H        3.4722652264    0.0012181448    1.2770275272
H        3.8019328443    0.7515499794   -0.2842324890
H        2.4348113730   -2.2801032562    1.0131063782
22   
torsion grid (-150,)
C        7.1867987181   -2.6336535306   -0.1860679838
C        7.0850193240   -1.6569409922    0.8093192236
C        6.1366238625   -2.8017049354   -1.0949416918
C        5.9391150780   -0.8600784891    0.8959593181
C        4.9937821238   -2.0023074512   -1.0059703865
C        4.8756638647   -1.0264139892   -0.0031009785
C        2.3462609276   -0.7292465887   -0.3874168275
C        0.8392106133   -2.6699235854   -0.1147168614
C        3.6704216233   -0.1060364343    0.0596884377
N        2.0158736234   -1.8943060232    0.2510373402
O        1.6191543050   -0.1953441799   -1.2234000895
H        8.0754366684   -3.2556849481   -0.2545145425
H        7.8964316181   -1.5147930288    1.5186446716
H        6.2091399262   -3.5528600375   -1.8774680382
H        5.8686386061   -0.1023613832    1.6737785115
H        4.1894366474   -2.1343876964   -1.7257139368
H        0.4492322242   -3.1865144116    0.7666645823
H        1.0618571251   -3.4100813901   -0.8940330178
H        0.0811483675   -1.9854352338   -0.4964166435
H        3.5462607108    0.2770685991    1.0788905193
H        3.8258376364    0.7590865106   -0.5907306225
H        2.7361721747   -2.3462133810    0.7998906880
22   
torsion grid (-135,)
C        7.1918418616   -2.7120370900   -0.0838986020
C        7.0122575686   -1.7751370510    0.9373974709
C        6.2431035462   -2.8043371052   -1.1092661591
C        5.8891977441   -0.9401187965    0.9343230942
C        5.1245957252   -1.9681712771   -1.1087312297
C        4.9275204320   -1.0289074933   -0.0816500698
C        2.3740613635   -0.7238324550   -0.3972265612
C        0.9423145485   -2.7080037754   -0.0345118476
C        3.7406101593   -0.0890966515   -0.1130451060
N        2.1717717592   -1.9543435432    0.1624065339
O        1.5091860735   -0.1252699674   -1.0353546763
H        8.0625865471   -3.3624663845   -0.0837983388
H        7.7448273585   -1.6920275792    1.7361981439
H        6.3777025903   -3.5252156348   -1.9117674053
H        5.7573602906   -0.2134610168    1.7332455467
H        4.3962861717   -2.0422567481   -1.9133691030
H        0.6777935878   -3.2368289988    0.8858901976
H        1.0372243864   -3.4363509428   -0.8496819878
H        0.1479962976   -2.0054874569   -0.2881813152
H        3.6571761220    0.4468625580    0.8388091795
H        3.8756903895    0.6702917547   -0.8883297945
H        2.9710477020   -2.4269229230    0.5643708134
22   
torsion grid (-120,)
C        7.1638512976   -2.7425350967   -0.0170310658
C        6.9029916770   -1.8505698654    1.0266911246
C        6.3260327485   -2.7558389452   -1.1390098078
C        5.8089282711   -0.9808333524    0.9499486918
C        5.2363277573   -1.8855915117   -1.2112169378
C        4.9581625972   -0.9895710736   -0.1640666422
C        2.3895070196   -0.6776883398   -0.3794003590
C        1.0135429124   -2.6849256852    0.0559904468
C        3.7829707262   -0.0434471847   -0.2590378858
N        2.2667723826   -1.9467867285    0.1079326244
O        1.4445980052   -0.0387879117   -0.8409355670
H        8.0129144391   -3.4186355979    0.0396792419
H        7.5502748383   -1.8286069896    1.8997058691
H        6.5251357534   -3.4416971355   -1.9585854383
H        5.6123402920   -0.2897518550    1.7667906828
H        4.5916192230   -1.8990552299   -2.0876432508
H        0.8925645034   -3.2770727405    0.9678247478
H        0.9721336473   -3.3545302028   -0.8120552232
H        0.1960699041   -1.9673641919   -0.0205642339
H        3.7491761360    0.6143914109    0.6156754965
H        3.8802562734    0.6091290346   -1.1313404689
H        3.1095645996   -2.4336283814    0.3836790107
22   
torsion grid (-105,)
C        7.1254923529   -2.7699488999    0.0229325877
C        6.7581632405   -1.9422771544    1.0881111994
C        6.4151930812   -2.7005265491   -1.1815167875
C        5.6857416003   -1.0542069743    0.9487766913
C        5.3455275970   -1.8120980947   -1.3162611013
C        4.9637506186   -0.9786104801   -0.2511850865
C        2.3888949415   -0.6742451212   -0.3704758223
C        1.0620481052   -2.6909715930    0.1538592795
C        3.7892969445   -0.0408629796   -0.3988328045
N        2.3156135289   -1.9536220312    0.0976096206
O        1.4028536334   -0.0239031357   -0.7153928669
H        7.9591686404   -3.4593604411    0.1275457839
H        7.3065334919   -1.9849828296    2.0257161449
H        6.6976627328   -3.3364598541   -2.0166665160
H        5.4043771724   -0.4140137398    1.7821366314
H        4.7983021623   -1.7624642992   -2.2555213396
H        1.0339118164   -3.3078481525    1.0568225543
H        0.9309576700   -3.3362945550   -0.7235355019
H        0.2425719018   -1.9721016455    0.1806901622
H        3.7952384774    0.7142518339    0.3937023362
H        3.8421932181    0.5067554751   -1.3439883097
H        3.1818026441   -2.4469196884    0.2702627822
22   
torsion grid (-90,)
C        6.9186550790   -2.6713591796    0.1069494555
C        6.3874068166   -1.8351838051    1.0946638791
C        6.4177482292   -2.6033091546   -1.1978192292
C        5.3607661862   -0.9401132190    0.7778456734
C        5.3913038917   -1.7067405895   -1.5091270861
C        4.8479376565   -0.8635014771   -0.5267201564
C        2.2837726344   -0.5015140753   -0.7099406853
C        0.9011129538   -2.4587476034   -0.1233495568
C        3.7057718781    0.0672854750   -0.8535030812
N        2.1858709927   -1.8093205600   -0.3393497405
O        1.3047634352    0.2079391425   -0.9398405869
H        7.7181516252   -3.3661942210    0.3503162661
H        6.7736866698   -1.8777306371    2.1098706411
H        6.8278546462   -3.2460893778   -1.9726350244
H        4.9516061603   -0.2926437343    1.5506436313
H        5.0045911610   -1.6599723945   -2.5249662731
H        0.9808338022   -3.5197360894   -0.3750317788
H        0.1588226442   -1.9871295692   -0.7686511823
H        0.5657817692   -2.3618959339    0.9165790150
H        3.7325496738    0.9577555691   -0.2186191981
H        3.7762940920    0.4260250306   -1.8849003004
H        3.0348802852   -2.3046778542   -0.1011053335
22   
torsion grid (-75,)
C        6.9265333846   -2.6621718324    0.1367664587
C        6.2582450260   -1.9104314710    1.1104276925
C        6.5628627601   -2.5296270913   -1.2068132785
C        5.2340234075   -1.0352481264    0.7401207571
C        5.5360797068   -1.6522588746   -1.5724039909
C        4.8601519608   -0.8918294339   -0.6068468097
C        2.2977646461   -0.4911120759   -0.6963648292
C        0.8998161098   -2.4153717994   -0.0430833436
C        3.7183696666    0.0185160588   -0.9904436921
N        2.1813998422   -1.8122681617   -0.3794005812
O        1.3317522932    0.2654257691   -0.7901644532
H        7.7244697471   -3.3422301453    0.4231918052
H        6.5365194401   -2.0051784228    2.1569878920
H        7.0776272687   -3.1074496317   -1.9702158326
H        4.7176333405   -0.4544143084    1.5017590502
H        5.2554108876   -1.5568750210   -2.6191183397
H        0.9057374017   -3.4698460664   -0.3317996094
H        0.1138474974   -1.8937108893   -0.5906575590
H        0.6821222574   -2.3391759009    1.0294510060
H        3.7943710660    0.9809212541   -0.4762752540
H        3.7425534144    0.2410062199   -2.0618719185
H        3.0287944774   -2.3428074748   -0.2258694180
22   
torsion grid (-60,)
C        6.9734297147   -2.6271643151    0.1528739780
C        6.1728158425   -1.9846575126    1.1054565753
C        6.7195424112   -2.4297030666   -1.2070644260
C        5.1281655229   -1.1531176352    0.6968232713
C        5.6705446416   -1.5956324944   -1.6114740810
C        4.8654426481   -0.9421691677   -0.6682530043
C        2.3110181751   -0.4935660347   -0.6431651942
C        0.8764903117   -2.3722579540    0.0657274556
C        3.7133372972   -0.0627150085   -1.0976875500
N        2.1455228973   -1.8245147670   -0.3911115163
O        1.3920099403    0.3215540612   -0.5724375908
H        7.7867280863   -3.2748308072    0.4695506923
H        6.3634611774   -2.1322652936    2.1654689464
H        7.3349633682   -2.9244266817   -1.9541407307
H        4.5086864382   -0.6584178595    1.4421247367
H        5.4757976488   -1.4510672760   -2.6719691940
H        0.7819829290   -3.4067521670   -0.2751300060
H        0.0662119491   -1.7763449297   -0.3562257098
H        0.7903328057   -2.3468818853    1.1592002415
H        3.8388838761    0.9558384712   -0.7193198010
H        3.6771593669    0.0156531360   -2.1892714379
H        2.9696565057   -2.4103295343   -0.3631988207
22   
torsion grid (-45,)
C        7.0414002625   -2.5780328676    0.1787930460
C        6.1154823704   -2.0506629186    1.0867554103
C        6.8903936980   -2.3196669469   -1.1863694536
C        5.0494831212   -1.2725349344    0.6300066367
C        5.8198777573   -1.5403910504   -1.6393448181
C        4.8905646800   -0.9997860988   -0.7396184515
C        2.3591978551   -0.4777933047   -0.6325553235
C        0.8462152685   -2.2736780764    0.1279852021
C        3.7332759589   -0.1556388284   -1.2318539283
N        2.0853815157   -1.8082419222   -0.4784867597
O        1.5453345657    0.4073188755   -0.3726679495
H        7.8701712995   -3.1853608687    0.5331020971
H        6.2238306846   -2.2468851728    2.1505033545
H        7.6016338679   -2.7270249921   -1.9004083995
H        4.3356389866   -0.8661118025    1.3431585492
H        5.7066151224   -1.3494229014   -2.7044052222
H        0.5954246996   -3.2619160627   -0.2666783633
H        0.0502141653   -1.5717928176   -0.1231492474
H        0.9218776982   -2.3334503781    1.2211599130
H        3.9060491644    0.9011983101   -1.0093384883
H        3.6442984993   -0.2369922520   -2.3206551695
H        2.8535003352   -2.4605633057   -0.5696276069
22   
torsion grid (-30,)
C        7.0639108208   -2.4995827429    0.2391013407
C        6.0204790481   -2.1304072889    1.0944262838
C        6.9847903239   -2.1808297754   -1.1202007595
C        4.9075022508   -1.4488597921    0.5938884717
C        5.8688572939   -1.5004879718   -1.6171368963
C        4.8198691976   -1.1186140057   -0.7678091291
C        2.3057209049   -0.6170956652   -0.5883400592
C        0.7544063457   -2.3569441000    0.2248849156
C        3.6235805447   -0.3663852825   -1.3234833701
N        1.9156141797   -1.9291914752   -0.5433398187
O        1.6330172715    0.2953939530   -0.1119099573
H        7.9281883627   -3.0319999048    0.6274590188
H        6.0722793798   -2.3734360771    2.1527787371
H        7.7879737747   -2.4660923714   -1.7949498850
H        4.1063813845   -1.1611422901    1.2705004385
H        5.8126371472   -1.2621578010   -2.6773798775
H        0.3514065987   -3.2778144829   -0.2047686990
H       -0.0029956299   -1.5740908755    0.1743844495
H        1.0008955771   -2.5311880847    1.2802580853
H        3.7959154115    0.7120761323   -1.2663716815
H        3.4889755579   -0.6154455796   -2.3819497923
H        2.6065624885   -2.6267690251   -0.7895607732
22   
torsion grid (-15,)
C        7.0695260472   -2.3776268748    0.2611366290
C        5.9564878706   -2.1469031026    1.0741771273
C        7.0277689222   -1.9978789311   -1.0851039276
C        4.8094338019   -1.5431072006    0.5474772543
C        5.8803851496   -1.3966764155   -1.6082004003
C        4.7588194674   -1.1563494739   -0.7992212683
C        2.2729620097   -0.6214572549   -0.5481893469
C        0.5906010112   -2.2117964585    0.3160857662
C        3.5295635347   -0.4946963625   -1.4049986797
N        1.6945868337   -1.8635962027   -0.5679749071
O        1.8152522449    0.3166310569    0.1017499771
H        7.9596901657   -2.8482487700    0.6703397987
H        5.9790635547   -2.4350607795    2.1222037510
H        7.8865143133   -2.1734763236   -1.7282175377
H        3.9581522595   -1.3571721619    1.1968162003
H        5.8547817887   -1.1090879904   -2.6575874221
H       -0.0194636564   -2.9918122930   -0.1472002511
H       -0.0200027874   -1.3218920178    0.4717726015
H        0.9435892412   -2.5649450875    1.2935305324
H        3.7091718682    0.5769497049   -1.5292782601
H        3.3436910025   -0.9112585086   -2.4015609357
H        2.2243762391   -2.6167905262   -0.9877715113
22   
torsion grid (0,)
C        7.1561852555   -2.2939147443    0.2755750758
C        5.9884800567   -2.2292789231    1.0395255399
C        7.1412445508   -1.8248328554   -1.0432724638
C        4.8121757918   -1.7034676497    0.4921649163
C        5.9660380216   -1.3014828540   -1.5861575447
C        4.7870932788   -1.2321869130   -0.8267475004
C        2.3118125230   -0.6680796670   -0.5534186919
C        0.4759279920   -2.0558899564    0.3524823366
C        3.5281878062   -0.6687867906   -1.4726861759
N        1.5833009403   -1.8282558435   -0.5656865014
O        2.0136120681    0.2967844031    0.1479347014
H        8.0690109542   -2.7018387710    0.7018425118
H        5.9903062420   -2.5843141905    2.0670767309
H        8.0438268815   -1.8669905623   -1.6478432506
H        3.9192580467   -1.6438655472    1.1078492183
H        5.9627793748   -0.9395771730   -2.6127008912
H       -0.2584176477   -2.7185693435   -0.1131942599
H        0.0082925932   -1.0954240051    0.5713550582
H        0.8115556641   -2.5004718242    1.2981136092
H        3.7004695860    0.3721485938   -1.7604021486
H        3.3110698415   -1.2271521200   -2.3911733140
H        1.9655046631   -2.6211385425   -1.0640437013
22   
torsion grid (15,)
C        7.0056120501   -2.1568946827   -0.7556309094
C        6.0757971964   -1.2595437714   -1.2881925472
C        6.6776889442   -2.8862663636    0.3926306518
C        4.8264210994   -1.0914350832   -0.6812703244
C        5.4286648400   -2.7171878788    0.9952406941
C        4.4894193817   -1.8154331283    0.4711135537
C        2.0907260256   -0.9475331989    0.3117438460
C        0.6569864986   -1.1484063705   -1.6886301186
C        3.1418936282   -1.6573083894    1.1606025876
N        1.5581489834   -1.7114680894   -0.6925780318
O        1.7463204202    0.2151648457    0.5160777624
H        7.9750618376   -2.2876377501   -1.2293390083
H        6.3219207981   -0.6858726474   -2.1782549155
H        7.3914023879   -3.5887384323    0.8157773552
H        4.1206770593   -0.3788047488   -1.0995971178
H        5.1795575414   -3.2918323237    1.8853458729
H        0.0338220492   -1.9430378043   -2.1068094303
H        1.2015634384   -0.6529677893   -2.5027335434
H        0.0198889826   -0.4082638272   -1.2031209763
H        2.7706313110   -2.6419469546    1.4667438281
H        3.2586352592   -1.0574173125    2.0676100410
H        2.0058426142   -2.5955996936   -0.8967785638
22   
torsion grid (30,)
C        6.9522963031   -2.2338674610   -0.8122370750
C        6.1087736205   -1.2123245639   -1.2614100154
C        6.5726237988   -3.0042925724    0.2912038749
C        4.8957956920   -0.9643975792   -0.6128060807
C        5.3576316738   -2.7541560664    0.9365940900
C        4.5072160505   -1.7278853573    0.4996934940
C        2.0770776457   -0.9026112185    0.3454807982
C        0.7803357803   -1.2458490674   -1.7264899805
C        3.1986744170   -1.4617174330    1.2231490743
N        1.7460582235   -1.6844874495   -0.7285981614
O        1.4939969889    0.1472436224    0.6104732030
H        7.8942284840   -2.4286052408   -1.3183114408
H        6.3948567957   -0.6076157889   -2.1183454459
H        7.2182684794   -3.8033917753    0.6466531970
H        4.2522967298   -0.1630265815   -0.9677544784
H        5.0673283791   -3.3626520887    1.7907565048
H        0.3379202318   -2.1186948404   -2.2135887606
H        1.2396528097   -0.6037509696   -2.4891189198
H       -0.0035868848   -0.6761623885   -1.2262630070
H        2.8455904853   -2.3826434166    1.7002670748
H        3.3499130205   -0.7254158167    2.0175046639
H        2.3824430384   -2.4319669555   -0.9748445216
22   
torsion grid (45,)
C        6.9219016764   -2.3303359532   -0.8685572891
C        6.1715675875   -1.2004424347   -1.2153186274
C        6.4932910913   -3.1447347330    0.1832084425
C        5.0038129212   -0.8903921569   -0.5148502883
C        5.3218721163   -2.8310723127    0.8816736448
C        4.5663326858   -1.6980662056    0.5491052362
C        2.0852593922   -0.9673610827    0.4594274528
C        0.8268715554   -1.4086811127   -1.6168872887
C        3.3003450599   -1.3591655407    1.3083436419
N        1.9083371410   -1.6938746352   -0.6845578696
O        1.2957266866   -0.0983949090    0.8267494954
H        7.8297180037   -2.5730968825   -1.4146192907
H        6.4964721501   -0.5613156722   -2.0324798498
H        7.0664148662   -4.0263540525    0.4587475236
H        4.4282225456   -0.0095833887   -0.7908781545
H        4.9922011010   -3.4740222059    1.6950653421
H        0.5842399254   -2.3141213497   -2.1791912629
H        1.0921753650   -0.6100742245   -2.3211801979
H       -0.0492731930   -1.0889989471   -1.0512983094
H        3.0013083992   -2.2041173352    1.9381511439
H        3.4701002302   -0.5126214150    1.9798317339
H        2.6708851480   -2.2831879042   -0.9925151669
22   
torsion grid (60,)
C        6.8278595040   -2.3747025305   -0.8653551002
C        6.2306288867   -1.1351970648   -1.1265535478
C        6.2895565369   -3.2032400892    0.1228468014
C        5.1054837864   -0.7328227895   -0.4041384199
C        5.1609355255   -2.7958495896    0.8439650007
C        4.5574075194   -1.5552636235    0.5959719164
C        2.0554338533   -0.8754848168    0.5171909555
C        0.8405133418   -1.3967776788   -1.5645563457
C        3.3216743306   -1.1212801699    1.3507759070
N        1.9777526972   -1.5466972076   -0.6679649731
O        1.1502850184   -0.1565891936    0.9392860568
H        7.7034781815   -2.6892810941   -1.4271175145
H        6.6423524110   -0.4836818035   -1.8932072714
H        6.7450441807   -4.1675847930    0.3330000532
H        4.6456800515    0.2308234322   -0.6136771540
H        4.7452554331   -3.4493052274    1.6079429608
H        0.7461687075   -2.2936624591   -2.1821369119
H        0.9477424303   -0.5220988889   -2.2179689879
H       -0.0649636254   -1.2698314897   -0.9693693949
H        3.0554965583   -1.8648770656    2.1092681464
H        3.5008023617   -0.1848681539    1.8868935152
H        2.8020271567   -2.0311228066   -0.9978466749
22   
torsion grid (75,)
C        6.7348722517   -2.3741197635   -0.8919082919
C        6.2623512560   -1.0700142278   -1.0808706581
C        6.0859465507   -3.2180113672    0.0146388514
C        5.1488647446   -0.6176442315   -0.3683505567
C        4.9709449732   -2.7604073744    0.7252909414
C        4.4889382379   -1.4553296291    0.5467739089
C        1.9538479370   -0.9104288222    0.4583594780
C        0.8019580828   -1.5275981331   -1.6297357590
C        3.2562535543   -0.9732148993    1.2730649371
N        1.9603676330   -1.5457854088   -0.7477162122
O        0.9593527000   -0.3449591301    0.9118906214
H        7.6017845300   -2.7271753631   -1.4442120657
H        6.7623636904   -0.4061014557   -1.7815246115
H        6.4469766657   -4.2315430505    0.1697042528
H        4.7857145341    0.3968061986   -0.5204369338
H        4.4683864291   -3.4237267537    1.4259483450
H        0.8454106281   -2.3901451068   -2.2994434608
H        0.7597548350   -0.6098537005   -2.2290295430
H       -0.1052048429   -1.5826415961   -1.0259344964
H        3.0407488763   -1.6097204300    2.1370414884
H        3.4025904951    0.0369610808    1.6662275020
H        2.8408783315   -1.8985819444   -1.0986208281
22   
torsion grid (90,)
C        6.7262219717   -2.4001976588   -0.8554681702
C        6.3772260821   -1.0507396993   -0.9749047579
C        5.9452593387   -3.2473295204   -0.0615395895
C        5.2534084864   -0.5551255795   -0.3064436494
C        4.8226949245   -2.7468163309    0.6046589107
C        4.4603928052   -1.3950547413    0.4912821164
C        1.9029624839   -0.9666589016    0.3817591611
C        0.7987314248   -1.6805840479   -1.7018726302
C        3.2196796936   -0.8683817610    1.1705191039
N        1.9676678549   -1.5615116929   -0.8421671581
O        0.8553229957   -0.5348846570    0.8622346004
H        7.6005147851   -2.7870525371   -1.3723629822
H        6.9809046920   -0.3841130789   -1.5855150389
H        6.2117358897   -4.2962311492    0.0408520044
H        4.9869992785    0.4952812462   -0.4039434445
H        4.2183945208   -3.4110615163    1.2188914362
H        0.9340587861   -2.5268140329   -2.3801281579
H        0.6332962668   -0.7710842598   -2.2920902260
H       -0.0829465963   -1.8496481921   -1.0815343945
H        3.0379788347   -1.3927127882    2.1136741499
H        3.3325014180    0.1892082325    1.4263385868
H        2.8744289234   -1.8319770071   -1.1989011902
22   
torsion grid (105,)
C        6.6690087763   -2.3335270082   -0.8191291002
C        6.3818549539   -0.9652879040   -0.8252651851
C        5.7082870314   -3.2386215972   -0.3523336590
C        5.1405177573   -0.5066132428   -0.3703527939
C        4.4707174336   -2.7755692011    0.1010518019
C        4.1679614878   -1.4032802772    0.0954352208
C        1.6309846278   -1.1597281698   -0.3866990780
C        0.9182919352   -1.7633275196   -2.6685685742
C        2.8162032850   -0.9178421716    0.5619599667
N        1.9438438153   -1.4751282017   -1.6761368585
O        0.4736764488   -1.0249987894    0.0092518592
H        7.6330491292   -2.6920307518   -1.1703141906
H        7.1234119985   -0.2545154844   -1.1809870282
H        5.9252787767   -4.3037203984   -0.3386584657
H        4.9233910347    0.5593468684   -0.3790147105
H        3.7284979967   -3.4838073275    0.4638520940
H        0.6119148933   -2.8164459181   -2.6452920214
H        1.2999824250   -1.5244728283   -3.6646481200
H        0.0427158989   -1.1474942383   -2.4585101510
H        2.5348035240   -1.3910546061    1.5068677799
H        2.8365064229    0.1599990898    0.7521703127
H        2.9105949790   -1.6740299395   -1.8975147844
22   
torsion grid (120,)
C        6.6903734966   -2.3522687717   -0.7645351732
C        6.4865695512   -0.9727231719   -0.6727659492
C        5.6429061815   -3.2270460574   -0.4507734316
C        5.2419537683   -0.4717260763   -0.2738495718
C        4.4032961822   -2.7222561793   -0.0524618508
C        4.1829321387   -1.3364412743    0.0354665997
C        1.6288887262   -1.1625583207   -0.3929752255
C        0.8467211143   -1.8384951474   -2.6325291402
C        2.8402887223   -0.8023374235    0.4794681347
N        1.8966662752   -1.4610884583   -1.6971838767
O        0.4869283744   -1.1220995849    0.0636332368
H        7.6559717472   -2.7438061010   -1.0736472728
H        7.2948545720   -0.2853862594   -0.9091022491
H        5.7942802543   -4.3017498325   -0.5128608201
H        5.0911619227    0.6034574350   -0.2053106664
H        3.5950443249   -3.4079216803    0.1936846696
H        0.6272638847   -2.9125262747   -2.5890791032
H        1.1553301145   -1.5784706477   -3.6484234145
H       -0.0633020989   -1.2927542664   -2.3794253577
H        2.5922882349   -1.1619069565    1.4822108789
H        2.8639479391    0.2906596109    0.5409480700
H        2.8630577836   -1.5808433302   -1.9707469731
22   
torsion grid (135,)
C        6.7311566921   -2.3714580656   -0.6927304824
C        6.5926854202   -0.9911573564   -0.5236587763
C        5.6172944543   -3.2014133007   -0.5178719907
C        5.3485915595   -0.4458836596   -0.1866396698
C        4.3779938596   -2.6532294308   -0.1804023692
C        4.2241771048   -1.2654924483   -0.0176298933
C        1.6614662617   -1.1765402304   -0.3732536640
C        0.7880063892   -1.8908247621   -2.5673726932
C        2.8903898077   -0.6807515403    0.3976018960
N        1.8479912536   -1.3748658423   -1.7126881710
O        0.5708770895   -1.3205253595    0.1774931063
H        7.6958498115   -2.7977043981   -0.9553233860
H        7.4514369657   -0.3373154351   -0.6527601243
H        5.7161706394   -4.2770439138   -0.6404077841
H        5.2503478365    0.6298760887   -0.0572329549
H        3.5200740008   -3.3071256933   -0.0394262317
H        0.7423007079   -2.9870457292   -2.5480277895
H        0.9562570716   -1.5587264745   -3.5951549918
H       -0.1678914187   -1.5021278867   -2.2140517906
H        2.6859840767   -0.9049293481    1.4482674840
H        2.9117511465    0.4109067816    0.3080711022
H        2.7979241442   -1.3821826221   -2.0609656919
22   
torsion grid (150,)
C        6.6363454982   -2.4393745104   -0.5672598616
C        6.5498135993   -1.0618390008   -0.3439001300
C        5.4696905257   -3.2115263693   -0.5661600832
C        5.3046992045   -0.4632567061   -0.1268132863
C        4.2276039982   -2.6097065049   -0.3473368185
C        4.1274056269   -1.2252978089   -0.1337106297
C        1.5806258754   -1.2054514092   -0.5137413974
C        0.6619206740   -1.9818187256   -2.6696258914
C        2.7921711730   -0.5724361197    0.1739728343
N        1.6835086463   -1.3152213792   -1.8742040150
O        0.5756061981   -1.5459306679    0.1080934572
H        7.6024518595   -2.9070242552   -0.7381852491
H        7.4501022484   -0.4525791906   -0.3386957092
H        5.5270991039   -4.2845512715   -0.7309803426
H        5.2467431925    0.6094812603    0.0463273799
H        3.3291928222   -3.2222487749   -0.3366439145
H        0.8081547744   -3.0692295378   -2.6991066343
H        0.6822874930   -1.5909306438   -3.6902668641
H       -0.3133011140   -1.7794721977   -2.2253615618
H        2.5869940074   -0.6273461030    1.2466081192
H        2.8262288860    0.4900360787   -0.0923231984
H        2.5965846458   -1.1737561232   -2.2870681014
22   
torsion grid (165,)
C        6.6587830088   -2.4726423470   -0.4928204663
C        6.5895400650   -1.1110398817   -0.1770006223
C        5.4783658939   -3.2023137486   -0.6578930903
C        5.3465158513   -0.4897752896   -0.0350610330
C        4.2352554033   -2.5766909006   -0.5130766768
C        4.1543825837   -1.2103045569   -0.2093569882
C        1.6210614385   -1.2708659148   -0.5508053132
C        0.5498779460   -2.0829265091   -2.6206211501
C        2.8207604692   -0.5108346217    0.0082484863
N        1.5311887275   -1.2665599786   -1.9182689083
O        0.7960851154   -1.8320810327    0.1678313306
H        7.6239079580   -2.9595861681   -0.6054659218
H        7.5012199256   -0.5345636899   -0.0412474056
H        5.5221695430   -4.2625637732   -0.8941900088
H        5.3000651362    0.5695062612    0.2104867128
H        3.3264052489   -3.1620400449   -0.6251717244
H        0.8817817822   -3.1236190489   -2.7287230476
H        0.3680643618   -1.6600215921   -3.6118782828
H       -0.3798793120   -2.0778737188   -2.0507139683
H        2.6378291357   -0.3950086207    1.0800929264
H        2.8570103147    0.4944963335   -0.4268623900
H        2.3403012915   -0.9465210999   -2.4353551237
22   
torsion grid (180,)
C        7.3208695164   -2.5200528256   -0.3276212473
C        7.2852846826   -1.4220932785    0.5399974773
C        6.1499468725   -2.9153925631   -0.9787779964
C        6.0879447504   -0.7360226394    0.7533805145
C        4.9511894386   -2.2252146939   -0.7633657604
C        4.9036852797   -1.1324503917    0.1117679791
C        2.4120718715   -0.8695453318   -0.3854910087
C        0.6300406522   -2.5896105294   -0.3637865726
C        3.6278949424   -0.3409819770    0.3677166765
N        1.7314688818   -1.8690767059    0.2590039761
O        2.0772443948   -0.4356360582   -1.4860770423
H        8.2513564251   -3.0556925497   -0.4969745710
H        8.1905525930   -1.0988927617    1.0478710773
H        6.1673108384   -3.7594831798   -1.6636897744
H        6.0706771476    0.1184793273    1.4274133880
H        4.0564335329   -2.5342989905   -1.2960444363
H       -0.1391855870   -2.8145353979    0.3806337229
H        0.9651356121   -3.5265138811   -0.8265889166
H        0.2055864260   -1.9522360632   -1.1398531364
H        3.4254814101   -0.3145302921    1.4453131141
H        3.7703146912    0.6924736886    0.0401443040
H        2.1410053379   -2.2517642343    1.1010399088
