22   
torsion grid (-165,)
C        5.6253746146    1.0782283652   -0.0932850786
C        5.6597008215    1.7147738383    1.1495023812
C        4.6115304204    0.1619076415   -0.3628027422
C        4.6754461850    1.4216525321    2.0954667814
C        0.8350041149   -2.4130064619    0.1887091179
C        1.6257728355   -2.8348448117   -0.8576117612
C        3.6152230797   -0.1460112322    0.5862295840
C        3.6457418354    0.5014952737    1.8488652268
C        2.5965902868   -1.1487269249    0.2446863828
C        2.6325437931    0.2396397362    2.9370689687
N        1.4416112602   -1.3799506532    0.8634647364
N        2.7411605854   -2.0229242535   -0.8144362667
H        6.3739661970    1.2986611594   -0.8495748400
H        6.4411388885    2.4342240603    1.3798220049
H        4.5806745735   -0.2921730100   -1.3501892717
H        4.7050292760    1.9177165213    3.0627384173
H       -0.1324356142   -2.7939323647    0.4895894902
H        1.5055645646   -3.6116432329   -1.5991789925
H        2.5513521707   -0.8271529401    3.1618846044
H        1.6313824897    0.5556617577    2.6339344814
H        2.9146426026    0.7744308294    3.8485280302
H        3.5544617775   -2.1156076629   -1.4063025670
22   
torsion grid (-150,)
C        5.5738079147    1.1391394880   -0.1216719328
C        5.6364811605    1.7398540705    1.1378860471
C        4.5636062960    0.2158979572   -0.3875974357
C        4.6856883411    1.4082680740    2.1065436457
C        0.7652352376   -2.2934042047    0.0814395631
C        1.6579742742   -2.8794652141   -0.7897962835
C        3.6077219874   -0.1317196322    0.5867491990
C        3.6626273140    0.4808574683    1.8631844711
C        2.5849869335   -1.1312192450    0.2470713263
C        2.6746062904    0.1659862061    2.9606770722
N        1.3454255603   -1.2199884046    0.7179381458
N        2.8107529079   -2.1268576105   -0.6809485900
H        6.2946069618    1.3954823747   -0.8935417403
H        6.4148669810    2.4639262639    1.3643737981
H        4.4937851360   -0.2132051331   -1.3844453733
H        4.7390556141    1.8780606215    3.0859462617
H       -0.2584328986   -2.5829291379    0.2811688599
H        1.5844788305   -3.7331085960   -1.4482916145
H        2.5657694450   -0.9124194123    3.1060460368
H        1.6771995840    0.5376449459    2.7123020702
H        2.9976840221    0.6183684370    3.9025402009
H        3.6947890168   -2.3291514218   -1.1275849565
22   
torsion grid (-135,)
C        6.1232669058    0.0779939421    1.2480846189
C        5.8410938316    1.3887902304    1.6397339380
C        5.0806934904   -0.7486999473    0.8272075459
C        4.5234050208    1.8546579816    1.6018009756
C        1.0234345521   -2.1340992419   -0.6664501504
C        1.6122962319   -3.1403214533    0.0689055352
C        3.7516325925   -0.2895811424    0.8017516349
C        3.4613549100    1.0407937501    1.1852247904
C        2.6944917857   -1.2079435429    0.3477093910
C        2.0552722373    1.5910727649    1.1602801493
N        1.6989617851   -0.9465572956   -0.4903862247
N        2.6820710229   -2.5392094799    0.7041244933
H        7.1445668153   -0.2934443848    1.2561041354
H        6.6408573055    2.0478695085    1.9677750398
H        5.3023453396   -1.7566934365    0.4842190930
H        4.3107315308    2.8766306975    1.9072400561
H        0.1588350005   -2.2013586444   -1.3142071794
H        1.3741194590   -4.1861810857    0.1997762084
H        1.3522138455    0.9150636579    1.6562380385
H        1.6971758702    1.7039598215    0.1335624177
H        2.0149889026    2.5638236816    1.6582862613
H        3.2970745543   -2.9717620754    1.3806045310
22   
torsion grid (-120,)
C        6.1414713904    0.1109049387    1.1731846806
C        5.8465482622    1.4032510772    1.6136278957
C        5.1004650009   -0.7231138641    0.7589629901
C        4.5207541287    1.8485833817    1.6317982960
C        1.1275336316   -2.1609962877   -0.7971058453
C        1.5490084261   -3.0960110535    0.1234852273
C        3.7667111849   -0.2857758926    0.7938374670
C        3.4636209368    1.0256670026    1.2221605607
C        2.7048362265   -1.1977857111    0.3240872114
C        2.0421598980    1.5361099908    1.2402896004
N        1.8509715214   -0.9941552088   -0.6694641798
N        2.5616324857   -2.4711893957    0.8275543157
H        7.1694239729   -0.2401869901    1.1390145122
H        6.6449685308    2.0665025207    1.9366960759
H        5.3219375967   -1.7203089102    0.3859742216
H        4.3008229521    2.8580844174    1.9716857863
H        0.3517989096   -2.2653163674   -1.5447930957
H        1.2289955352   -4.1050213779    0.3406195859
H        1.3819333638    0.8557795751    1.7884404496
H        1.6411674420    1.6072873050    0.2254826742
H        1.9888986351    2.5216327953    1.7107941611
H        3.0743034688   -2.8521789903    1.6119894573
22   
torsion grid (-105,)
C        6.1735355870    0.1579370238    1.0980970432
C        5.8524312258    1.4194208595    1.6051056185
C        5.1484182196   -0.6888241809    0.6676528432
C        4.5155249265    1.8250895964    1.6736831591
C        1.2313246452   -2.2063723339   -0.9049428791
C        1.4353350809   -3.0076583881    0.1967495528
C        3.8067732706   -0.2912279631    0.7514320946
C        3.4762936885    0.9877510321    1.2475927698
C        2.7472239561   -1.2045795580    0.2643736484
C        2.0382465532    1.4464962009    1.3055537508
N        2.0509908708   -1.0962805525   -0.8567144778
N        2.4108902135   -2.3588614201    0.9327695569
H        7.2102462640   -0.1604432865    1.0281154844
H        6.6393824515    2.0899220837    1.9413447336
H        5.3862801320   -1.6648033802    0.2516680612
H        4.2743967630    2.8116599018    2.0630377118
H        0.5476816595   -2.3675855362   -1.7285318319
H        0.9958159839   -3.9425451725    0.5138378823
H        1.4135829077    0.7334479171    1.8543466666
H        1.6157375295    1.5243735759    0.2993040804
H        1.9564559763    2.4204339351    1.7954792262
H        2.7988613647   -2.6575008487    1.8180255833
22   
torsion grid (-90,)
C        6.2071052081    0.2053679551    1.0259268127
C        5.8543278763    1.4236874354    1.6116787879
C        5.2027289944   -0.6529284979    0.5698353407
C        4.5064342282    1.7772910456    1.7320327043
C        1.3369207035   -2.2919049875   -0.9724171382
C        1.3027291775   -2.8827859069    0.2708116977
C        3.8520039148   -0.3048549695    0.6979660348
C        3.4881306366    0.9281574336    1.2791120726
C        2.8048731670   -1.2348223637    0.2090710367
C        2.0352716406    1.3291982353    1.3888145196
N        2.2696658548   -1.2728350414   -1.0006352907
N        2.2459919640   -2.1976015497    1.0165994559
H        7.2523806500   -0.0723668728    0.9198136954
H        6.6253855661    2.1015695810    1.9693214808
H        5.4619082922   -1.5987685573    0.1011330200
H        4.2404105842    2.7321546772    2.1798498980
H        0.7470890790   -2.5408908611   -1.8451874981
H        0.7233937724   -3.6989362844    0.6783541347
H        1.4686405579    0.6239838856    2.0070395602
H        1.5596224403    1.3385824417    0.4031261197
H        1.9338640835    2.3232436239    1.8321872386
H        2.4976286079   -2.3727995087    1.9806165196
22   
torsion grid (-75,)
C        6.2427942474    0.2789828341    0.9787931150
C        5.8719222883    1.4554148319    1.6362903226
C        5.2523045169   -0.5808220015    0.4994044363
C        4.5190063569    1.7654232942    1.8016925499
C        1.5064749346   -2.3676272565   -1.0531518743
C        1.2445407191   -2.7469612937    0.2445154374
C        3.8946519679   -0.2744257558    0.6681680343
C        3.5122843535    0.9137042228    1.3257503653
C        2.8709333746   -1.2221157605    0.1697922232
C        2.0544263687    1.2763661668    1.5011586245
N        2.5123083330   -1.4214866562   -1.0890684228
N        2.1196794116   -2.0036217739    1.0164113757
H        7.2923626447    0.0342945727    0.8389666467
H        6.6327180414    2.1347068432    2.0126440495
H        5.5229366753   -1.4957038182   -0.0206171093
H        4.2378810165    2.6903170961    2.3005771224
H        1.0294787137   -2.7183577361   -1.9592819254
H        0.5466669728   -3.4506748915    0.6753541497
H        1.5912481025    0.7076783734    2.3163677387
H        1.4810632628    1.0633257348    0.5944151617
H        1.9428838297    2.3378063056    1.7382485098
H        2.2237871273   -2.0484840737    2.0214769221
22   
torsion grid (-60,)
C        6.2277794579    0.2658580328    0.8775490101
C        5.8829234962    1.4225339878    1.5836406350
C        5.2212589811   -0.5868881292    0.4240132576
C        4.5380238429    1.7183544312    1.8185499556
C        1.5913786770   -2.5167841033   -1.0359984786
C        1.1406479076   -2.6845529381    0.2549711007
C        3.8686597146   -0.2949148095    0.6622743337
C        3.5123369855    0.8741959581    1.3684266076
C        2.8500154069   -1.2527877448    0.1850648067
C        2.0673896493    1.2455804465    1.6247955563
N        2.6459957053   -1.6276094509   -1.0698298360
N        1.9483504737   -1.8664275971    1.0236153561
H        7.2707482216    0.0302158177    0.6832508125
H        6.6565622426    2.0967644932    1.9423426401
H        5.4691404724   -1.4875192513   -0.1303466448
H        4.2754744006    2.6296622697    2.3516193866
H        1.2138855732   -2.9793498416   -1.9388460435
H        0.3532937505   -3.2881452709    0.6834583611
H        1.6754759691    0.7600769028    2.5275483509
H        1.4220281738    0.9544432691    0.7919253327
H        1.9681378331    2.3242212524    1.7741437748
H        1.9210176875   -1.7714182475    2.0299207436
22   
torsion grid (-45,)
C        6.1958236368    0.2545194903    0.7733247802
C        5.8699053770    1.3945237914    1.5150735457
C        5.1812650587   -0.6008378543    0.3476552456
C        4.5328858391    1.6691183706    1.8098504198
C        1.7098751919   -2.7069212006   -1.0278707876
C        1.0784996585   -2.6867477111    0.1969899845
C        3.8340679136   -0.3327552823    0.6487433253
C        3.4965287530    0.8225079601    1.3888701467
C        2.8298384408   -1.3039983667    0.1792226956
C        2.0647436362    1.1930127338    1.7148431287
N        2.7882646545   -1.8495044411   -1.0302047237
N        1.7991954367   -1.7831975047    0.9552874337
H        7.2318991212    0.0331671607    0.5311005954
H        6.6501158852    2.0711522474    1.8542923519
H        5.4124982857   -1.4887190865   -0.2330083890
H        4.2827838196    2.5682983141    2.3688512699
H        1.4436520321   -3.2826802303   -1.9049391407
H        0.2165219206   -3.2098336267    0.5858575725
H        1.7094174960    0.6954050658    2.6271334429
H        1.3798469450    0.9268557899    0.9055314300
H        1.9794000629    2.2684554149    1.8922124817
H        1.6357670192   -1.5576911393    1.9268269685
22   
torsion grid (-30,)
C        6.1808228546    0.2745860277    0.7036848423
C        5.8733207873    1.4005168821    1.4743298638
C        5.1605134590   -0.5844688474    0.3041722568
C        4.5454232960    1.6544506737    1.8216203264
C        1.8315824843   -2.8524139820   -0.9712169907
C        1.0329048080   -2.6491395842    0.1337984149
C        3.8200840883   -0.3410087640    0.6607753122
C        3.5012462884    0.8040181697    1.4277929774
C        2.8263980375   -1.3201916391    0.1915704161
C        2.0846422816    1.1706591983    1.8181772455
N        2.9338768395   -2.0315749621   -0.9265616044
N        1.6736341572   -1.6652045124    0.8619175598
H        7.2087745587    0.0666711426    0.4185715960
H        6.6583252758    2.0804093190    1.7952416944
H        5.3770123711   -1.4613725841   -0.2974694548
H        4.3068623723    2.5419599737    2.4036809730
H        1.6683450151   -3.5363013417   -1.7942040467
H        0.1005569365   -3.0905712071    0.4558637724
H        1.7418217683    0.6101107959    2.6991682729
H        1.3744566295    0.9888862601    1.0064970554
H        2.0247673566    2.2289407365    2.0848084168
H        1.3822718414   -1.3154567573    1.7634312753
22   
torsion grid (-15,)
C        6.1752140948    0.3149352873    0.6359186891
C        5.8831518150    1.4250073515    1.4349282706
C        5.1529774781   -0.5508903943    0.2605055535
C        4.5656183442    1.6521534731    1.8339606226
C        1.9359137350   -2.9731903141   -0.8826089020
C        0.9957640980   -2.5851940534    0.0479410581
C        3.8208116753   -0.3379029171    0.6704908153
C        3.5179138995    0.7941768971    1.4654687385
C        2.8353845196   -1.3260102072    0.2023776753
C        2.1181030033    1.1464582046    1.9228803225
N        3.0629723348   -2.1969189005   -0.7787544083
N        1.5773895440   -1.5332179951    0.7274699186
H        7.1940400743    0.1247389804    0.3086415076
H        6.6697217633    2.1108872275    1.7385920199
H        5.3588544435   -1.4158319479   -0.3608848823
H        4.3365838908    2.5247215709    2.4416145175
H        1.8576394242   -3.7617034116   -1.6200347130
H        0.0013170586   -2.9401210247    0.2781372672
H        1.7672404199    0.4837180362    2.7264584338
H        1.3944331222    1.1062088483    1.1020796733
H        2.0941142626    2.1601051056    2.3300054609
H        1.1712936870   -1.0532259697    1.5164393732
22   
torsion grid (0,)
C        6.1292542073    0.3503284690    0.5701559215
C        5.8406412158    1.4531675645    1.3801249218
C        5.1151835200   -0.5381714296    0.2293826467
C        4.5349578271    1.6421398316    1.8329791893
C        1.9906283408   -3.1324150854   -0.7229566773
C        0.9365341448   -2.5388171373   -0.0621300666
C        3.7909114483   -0.3573379979    0.6815124018
C        3.4950692769    0.7591592460    1.5022828457
C        2.8219967595   -1.3761664911    0.2428211602
C        2.1166811941    1.0630763600    2.0500928783
N        3.1418567869   -2.4132149789   -0.5304191051
N        1.4774915865   -1.4247322694    0.5475155614
H        7.1396717621    0.1836721499    0.2059925060
H        6.6205073672    2.1578850379    1.6566135903
H        5.3203577963   -1.3988695005   -0.3976051874
H        4.3098802593    2.4997048347    2.4628892829
H        1.9792862263   -4.0337335187   -1.3222819473
H       -0.1096042476   -2.7939622897    0.0294399063
H        1.7468928471    0.2620012517    2.7026013788
H        1.3839069513    1.2322707718    1.2509038634
H        2.1378928446    1.9736324758    2.6531925101
H        0.9640610702   -0.7665657849    1.1123890561
22   
torsion grid (15,)
C        6.1238929066    0.3963148100    0.4973984313
C        5.8386401851    1.4909413927    1.3197491147
C        5.1179966896   -0.5141768362    0.1893991650
C        4.5484314886    1.6455631266    1.8278863508
C        2.0060267309   -3.2220447189   -0.5277841995
C        0.9224794468   -2.4475655650   -0.1721882794
C        3.8075760801   -0.3593536022    0.6861840365
C        3.5189501607    0.7385466401    1.5328832693
C        2.8387825622   -1.3930593570    0.2864134347
C        2.1619133835    0.9781442696    2.1603263017
N        3.1778975968   -2.5659915301   -0.2448600694
N        1.4652742976   -1.2894779610    0.3482234973
H        7.1244512920    0.2540406061    0.0974865604
H        6.6120727640    2.2126679287    1.5692416067
H        5.3203964368   -1.3704871390   -0.4449385173
H        4.3310113690    2.4879829615    2.4806939847
H        2.0026832834   -4.2125812763   -0.9642684282
H       -0.1446511621   -2.6076206948   -0.2313406130
H        1.7612075245    0.0748177993    2.6321028138
H        1.4269472411    1.3417668714    1.4284881469
H        2.2301152506    1.7471269868    2.9335166974
H        0.9385334557   -0.4870746919    0.6586631596
22   
torsion grid (30,)
C        6.0919275815    0.4559312002    0.4540934630
C        5.7949724552    1.5276435471    1.3022931990
C        5.1040598922   -0.4792771493    0.1573537224
C        4.5157807625    1.6375492457    1.8500157269
C        1.9869546603   -3.2864938411   -0.3482540837
C        0.9287029200   -2.4070283046   -0.2651387698
C        3.8079967283   -0.3679980612    0.6969217035
C        3.5058666670    0.7055172084    1.5671336557
C        2.8420017324   -1.4076401206    0.3067062483
C        2.1553308159    0.8794086923    2.2301296548
N        3.1605897501   -2.6625338637    0.0040211806
N        1.4857706169   -1.2165560025    0.1606214552
H        7.0851849459    0.3517695296    0.0253729519
H        6.5543438113    2.2671293656    1.5430914523
H        5.3142894725   -1.3204843535   -0.4953212996
H        4.2941375654    2.4607807975    2.5256849539
H        1.9646219109   -4.3302872588   -0.6340135295
H       -0.1297440866   -2.5133405143   -0.4555201777
H        1.7354887395   -0.0737036908    2.5640401680
H        1.4252630500    1.3541013466    1.5596113435
H        2.2405898161    1.5317734048    3.1029414176
H        0.9925293330   -0.3425464842    0.2736145959
22   
torsion grid (45,)
C        6.0604073579    0.5054174399    0.4035109533
C        5.7609913617    1.5514946382    1.2822089553
C        5.0863249361   -0.4483614472    0.1144178975
C        4.4956914440    1.6216604089    1.8687048583
C        1.9041100258   -3.3063854167   -0.1735621716
C        0.9205503471   -2.3563956184   -0.3452126112
C        3.8081521900   -0.3774639461    0.6964583189
C        3.5018534717    0.6706858806    1.5931251787
C        2.8330320570   -1.4146662499    0.3148914873
C        2.1600437475    0.7860727862    2.2858405002
N        3.0801285827   -2.7164367223    0.2352007332
N        1.5245874481   -1.1552584745   -0.0239000136
H        7.0436809951    0.4353989180   -0.0540814400
H        6.5101956150    2.3031638094    1.5173838752
H        5.2996539655   -1.2708179554   -0.5616281937
H        4.2747433846    2.4252754091    2.5679506923
H        1.8277405360   -4.3769434376   -0.3139258077
H       -0.1133541825   -2.4193042423   -0.6533157498
H        1.7433628064   -0.1934302888    2.5344849963
H        1.4220831712    1.3128819979    1.6661205447
H        2.2562865457    1.3592409009    3.2118804153
H        1.0991876299   -0.2404454244   -0.0838122032
22   
torsion grid (60,)
C        6.0565184504    0.5981236568    0.3638868252
C        5.7560413587    1.6137790023    1.2768617783
C        5.0980987162   -0.3749332884    0.0800160553
C        4.5072234749    1.6389618049    1.9024075146
C        1.8303174439   -3.2660897098    0.0174016274
C        0.9525192495   -2.2898694915   -0.4000491871
C        3.8402254620   -0.3500048771    0.7033989279
C        3.5319625966    0.6680845036    1.6312977949
C        2.8558485326   -1.3896176519    0.3383222741
C        2.2004926036    0.7200380321    2.3496348556
N        3.0021439065   -2.6997844045    0.4761194642
N        1.6171423362   -1.0965393043   -0.1834970346
H        7.0276814015    0.5653080762   -0.1227636571
H        6.4934283969    2.3782263215    1.5084920417
H        5.3147010189   -1.1745136933   -0.6225930227
H        4.2866536026    2.4206009011    2.6262639836
H        1.6824941078   -4.3383636566    0.0198514216
H       -0.0433585793   -2.3301786236   -0.8177167844
H        1.8221938064   -0.2813592737    2.5710624078
H        1.4355601876    1.2342577528    1.7540849369
H        2.2927141894    1.2674104934    3.2917062420
H        1.2809330085   -0.1721475963   -0.4177898161
22   
torsion grid (75,)
C        6.0553812274    0.7176027427    0.3414395777
C        5.7451054777    1.6900280143    1.2964053669
C        5.1238872998   -0.2817284013    0.0519658371
C        4.5140254394    1.6510797090    1.9572987492
C        1.8258396363   -3.2386758114    0.1763314671
C        1.0697636148   -2.3029836564   -0.4939342468
C        3.8865892757   -0.3200986810    0.7101346499
C        3.5681220745    0.6543860160    1.6792706301
C        2.9123508578   -1.3795341325    0.3595155569
C        2.2485948808    0.6215527556    2.4178164129
N        2.9624120221   -2.6570735381    0.7037580910
N        1.7726713286   -1.1182818677   -0.3648606542
H        7.0133991309    0.7358744222   -0.1712841484
H        6.4618287173    2.4724852343    1.5329661014
H        5.3517032750   -1.0498064636   -0.6820887129
H        4.2858138195    2.4020468950    2.7104963112
H        1.6170453910   -4.2922360888    0.3106175558
H        0.1350229838   -2.3660411960   -1.0325833329
H        1.9806507627   -0.3990900799    2.7055766089
H        1.4292357738    1.0077250958    1.7997240583
H        2.2930183446    1.2343881632    3.3221189029
H        1.5219434036   -0.2226445063   -0.7623177302
22   
torsion grid (90,)
C        5.9909470597    0.7215513043    0.2724123159
C        5.7305831247    1.6516660268    1.2818461937
C        5.0390336176   -0.2596246798   -0.0184981673
C        4.5286499448    1.5919521463    1.9946997667
C        1.6598903508   -3.1751194482    0.2726279344
C        1.0865376010   -2.3215050440   -0.6430936812
C        3.8306947211   -0.3152314255    0.6878306084
C        3.5648292481    0.6141203240    1.7154250755
C        2.8353973839   -1.3643238967    0.3575464091
C        2.2803491172    0.5398516360    2.5080485570
N        2.7416067029   -2.5735592352    0.8868995767
N        1.8472333342   -1.1671185318   -0.5784292950
H        6.9265765655    0.7551714883   -0.2793735680
H        6.4628610839    2.4192549018    1.5196241310
H        5.2323019623   -0.9975430013   -0.7928343745
H        4.3380382550    2.3134091565    2.7860537627
H        1.3583525446   -4.1840546558    0.5231229103
H        0.2444159045   -2.4235713421   -1.3125976816
H        2.1776220937   -0.4373729236    2.9901375794
H        1.4025990462    0.6695303534    1.8651603553
H        2.2495712498    1.3125042342    3.2807421188
H        1.7186867968   -0.3272410017   -1.1274581974
22   
torsion grid (105,)
C        5.9268311604    0.7591554571    0.2178262472
C        5.7297875808    1.6439057330    1.2807612270
C        4.9504725357   -0.1999559222   -0.0649727484
C        4.5659203456    1.5612241909    2.0523126391
C        1.5590304762   -3.1045043266    0.3622735650
C        1.2051198744   -2.4055907948   -0.7706910652
C        3.7758630349   -0.2729333067    0.6965825274
C        3.5767076043    0.6068453968    1.7818029058
C        2.7726788563   -1.3169425916    0.3842652756
C        2.3343688974    0.5135570162    2.6361656724
N        2.5328850555   -2.4256035731    1.0674030240
N        1.9928530229   -1.2683325741   -0.7478427914
H        6.8341536224    0.8069575216   -0.3784181743
H        6.4816748048    2.3936074551    1.5143028202
H        5.1006336497   -0.9080816991   -0.8762786249
H        4.4239485029    2.2493330090    2.8825946570
H        1.1730475549   -4.0555298411    0.7060970702
H        0.4968471239   -2.6041856732   -1.5622977433
H        2.2964574884   -0.4454319962    3.1614751165
H        1.4258204376    0.5745701326    2.0272777309
H        2.3050409915    1.3186264282    3.3752480991
H        1.9866613850   -0.5150899050   -1.4231073778
22   
torsion grid (120,)
C        5.8610427912    0.7999656036    0.1643504294
C        5.7185227791    1.6460546846    1.2665696361
C        4.8689283172   -0.1448057083   -0.1080449634
C        4.5896756080    1.5358575522    2.0850455517
C        1.4361503948   -3.0159176961    0.4021194871
C        1.3137549392   -2.4799917083   -0.8616549979
C        3.7264366134   -0.2442855152    0.7018477189
C        3.5826666953    0.5965484603    1.8277232055
C        2.7152910219   -1.2729799089    0.3860666794
C        2.3798447571    0.4925279531    2.7353876748
N        2.3082101280   -2.2668282426    1.1634631661
N        2.1408328367   -1.3720557472   -0.8611186927
H        6.7411960093    0.8644187212   -0.4698526143
H        6.4834606827    2.3844264792    1.4935221423
H        4.9861915635   -0.8271176228   -0.9466872086
H        4.4872871468    2.1946170008    2.9444017773
H        0.9521812905   -3.8980055597    0.8013604407
H        0.7305325158   -2.7673749131   -1.7247362343
H        2.3636333709   -0.4713421317    3.2514314905
H        1.4459429514    0.5568838025    2.1670375123
H        2.3850130933    1.2922051763    3.4810079325
H        2.2681078777   -0.7141375686   -1.6189253883
22   
torsion grid (135,)
C        5.8124399811    0.8478879871    0.1155497335
C        5.7010007480    1.6599082582    1.2466476434
C        4.8208002955   -0.0984353593   -0.1464157300
C        4.6035311819    1.5122176239    2.1002017267
C        1.3033865426   -2.9124530366    0.4167071089
C        1.3824619642   -2.5322716015   -0.9058598427
C        3.7073140011   -0.2401756287    0.7008834734
C        3.5951887056    0.5704979764    1.8548032142
C        2.6938166402   -1.2561122266    0.3726602235
C        2.4301378386    0.4480979487    2.8078185780
N        2.1166060086   -2.1209779649    1.1976500089
N        2.2797719436   -1.4816284029   -0.9224056477
H        6.6680641844    0.9392877078   -0.5482529063
H        6.4652789369    2.4004959507    1.4680655222
H        4.9246777555   -0.7589336102   -1.0041974365
H        4.5235064058    2.1471257857    2.9796494776
H        0.7132237748   -3.7121355251    0.8454986144
H        0.8971200630   -2.8936069935   -1.8011579697
H        2.4688799500   -0.4980037624    3.3541603079
H        1.4747296890    0.4537571126    2.2744901676
H        2.4339415538    1.2723936811    3.5264282655
H        2.5248064404   -0.9158251069   -1.7241421535
22   
torsion grid (150,)
C        5.7660768182    0.9007699094    0.0762737511
C        5.6770860022    1.6847764597    1.2289957363
C        4.7825554996   -0.0546398013   -0.1753591040
C        4.6088168209    1.4969888880    2.1097350182
C        1.1675126894   -2.7987600325    0.4120896779
C        1.4332834979   -2.5844708534   -0.9231646995
C        3.6966854662   -0.2433458447    0.7017158268
C        3.6067289652    0.5445206300    1.8759336995
C        2.6832649948   -1.2523783522    0.3626496988
C        2.4775340559    0.4022117015    2.8681353236
N        1.9396661359   -1.9725209021    1.1962430537
N        2.4046923154   -1.6031417678   -0.9422307163
H        6.5978225720    1.0214507091   -0.6127122099
H        6.4348622700    2.4335429775    1.4447649183
H        4.8824541714   -0.6926646158   -1.0503936121
H        4.5439962321    2.1107460007    3.0052273057
H        0.4686852864   -3.5009889337    0.8481290273
H        1.0319649999   -3.0185158080   -1.8277418643
H        2.5357785488   -0.5521998116    3.3977695637
H        1.5029799414    0.4114987669    2.3722824496
H        2.5102549349    1.2157220721    3.5984019067
H        2.7773270484   -1.1541408840   -1.7677339888
22   
torsion grid (165,)
C        5.7236739277    0.9601812963    0.0343501152
C        5.6603560540    1.7122157057    1.2096658771
C        4.7469258022   -0.0014685091   -0.2133710408
C        4.6210349353    1.4822470058    2.1132319747
C        1.0473596169   -2.6778448708    0.3786354280
C        1.4883392643   -2.6514222642   -0.9263189344
C        3.6894697751   -0.2390069990    0.6885982329
C        3.6248309428    0.5212374678    1.8852422653
C        2.6756735138   -1.2456591933    0.3442495669
C        2.5334478619    0.3513236185    2.9144428011
N        1.7787709638   -1.8067872299    1.1510961730
N        2.5259246024   -1.7412406629   -0.9359762544
H        6.5295462391    1.1128989448   -0.6785451994
H        6.4128391475    2.4667582827    1.4235398638
H        4.8377244146   -0.6029231248   -1.1144982241
H        4.5733854538    2.0695471312    3.0272175028
H        0.2485149482   -3.2737503278    0.8008989611
H        1.1702601828   -3.1737725863   -1.8172577048
H        2.5669964905   -0.6410758280    3.3706764102
H        1.5405924393    0.4375425143    2.4650027744
H        2.6359306278    1.1076210953    3.6979101622
H        3.0260034327   -1.4341301285   -1.7581395403
22   
torsion grid (180,)
C        5.6717289296    1.0235241789   -0.0194489188
C        5.6564448365    1.7150378871    1.1938346624
C        4.6767684612    0.0856532266   -0.2824508817
C        4.6423501880    1.4498068288    2.1153634582
C        0.9253174718   -2.5415898354    0.3006705324
C        1.5529049695   -2.7468255227   -0.9081530216
C        3.6463912840   -0.1931978054    0.6397042483
C        3.6289406653    0.5098362336    1.8737394556
C        2.6294867205   -1.1970408783    0.2941327543
C        2.5784528755    0.2990819054    2.9373824480
N        1.5924461756   -1.5883274200    1.0315978620
N        2.6334746370   -1.8888108353   -0.9014755513
H        6.4494857436    1.2109066177   -0.7549161021
H        6.4230230306    2.4513868648    1.4205489859
H        4.7163803071   -0.4348847800   -1.2356781491
H        4.6307715737    1.9888895968    3.0596326921
H        0.0348125420   -3.0250660006    0.6811650870
H        1.3400799021   -3.3997950107   -1.7425261931
H        2.5582011049   -0.7382777175    3.2806917252
H        1.5748235743    0.5027127570    2.5557414998
H        2.7754397379    0.9538631374    3.7910964222
H        3.3027829740   -1.7945931243   -1.6513950616
