
  -OEChem-12102412493D

 32 33  0     0  0  0  0  0  0999 V2000
   -0.4984   -7.7458    3.5809 C   0  0  0  0  0  0  0  0  0  0  0  0
   -1.1431   -8.5970    2.6775 C   0  0  0  0  0  0  0  0  0  0  0  0
   -0.4775   -6.3740    3.3399 C   0  0  0  0  0  0  0  0  0  0  0  0
   -1.7699   -8.0710    1.5463 C   0  0  0  0  0  0  0  0  0  0  0  0
   -1.0751   -5.8238    2.1931 C   0  0  0  0  0  0  0  0  0  0  0  0
   -1.7324   -6.6915    1.3069 C   0  0  0  0  0  0  0  0  0  0  0  0
   -0.0301   -2.2268   -0.6385 C   0  0  0  0  0  0  0  0  0  0  0  0
   -0.9846   -4.3188    2.0636 C   0  0  0  0  0  0  0  0  0  0  0  0
   -0.0013   -0.7486   -0.9433 C   0  0  0  0  0  0  0  0  0  0  0  0
    0.4619   -3.1134   -1.7646 C   0  0  0  0  0  0  0  0  0  0  0  0
    1.3971   -0.3070   -1.4171 C   0  0  0  0  0  0  0  0  0  0  0  0
    1.8611   -2.6591   -2.2351 C   0  0  0  0  0  0  0  0  0  0  0  0
    1.8829   -1.1669   -2.5911 C   0  0  0  0  0  0  0  0  0  0  0  0
   -0.4264   -2.5695    0.5365 N   0  0  0  0  0  0  0  0  0  0  0  0
   -0.4598   -3.9015    0.8610 N   0  0  0  0  0  0  0  0  0  0  0  0
   -1.2880   -3.5813    2.9889 O   0  0  0  0  0  0  0  0  0  0  0  0
   -2.8117   -5.9930   -0.4089 I   0  0  0  0  0  0  0  0  0  0  0  0
   -0.0218   -8.1486    4.4702 H   0  0  0  0  0  0  0  0  0  0  0  0
   -1.1737   -9.6686    2.8551 H   0  0  0  0  0  0  0  0  0  0  0  0
   -0.0031   -5.6934    4.0408 H   0  0  0  0  0  0  0  0  0  0  0  0
   -2.2943   -8.7283    0.8606 H   0  0  0  0  0  0  0  0  0  0  0  0
   -0.7271   -0.5393   -1.7427 H   0  0  0  0  0  0  0  0  0  0  0  0
   -0.3175   -0.1974   -0.0549 H   0  0  0  0  0  0  0  0  0  0  0  0
    0.4910   -4.1753   -1.5058 H   0  0  0  0  0  0  0  0  0  0  0  0
   -0.2441   -3.0207   -2.6009 H   0  0  0  0  0  0  0  0  0  0  0  0
    1.3732    0.7511   -1.7008 H   0  0  0  0  0  0  0  0  0  0  0  0
    2.1019   -0.3971   -0.5807 H   0  0  0  0  0  0  0  0  0  0  0  0
    2.5851   -2.8536   -1.4337 H   0  0  0  0  0  0  0  0  0  0  0  0
    2.1677   -3.2640   -3.0957 H   0  0  0  0  0  0  0  0  0  0  0  0
    1.2359   -0.9931   -3.4622 H   0  0  0  0  0  0  0  0  0  0  0  0
    2.8952   -0.8694   -2.8875 H   0  0  0  0  0  0  0  0  0  0  0  0
   -0.2669   -4.6069    0.1569 H   0  0  0  0  0  0  0  0  0  0  0  0
  1  2  1  0  0  0  0
  1  3  2  0  0  0  0
  1 18  1  0  0  0  0
  2  4  2  0  0  0  0
  2 19  1  0  0  0  0
  3  5  1  0  0  0  0
  3 20  1  0  0  0  0
  4  6  1  0  0  0  0
  4 21  1  0  0  0  0
  5  6  2  0  0  0  0
  5  8  1  0  0  0  0
  6 17  1  0  0  0  0
  7  9  1  0  0  0  0
  7 10  1  0  0  0  0
  7 14  2  0  0  0  0
  8 15  1  0  0  0  0
  8 16  2  0  0  0  0
  9 11  1  0  0  0  0
  9 22  1  0  0  0  0
  9 23  1  0  0  0  0
 10 12  1  0  0  0  0
 10 24  1  0  0  0  0
 10 25  1  0  0  0  0
 11 13  1  0  0  0  0
 11 26  1  0  0  0  0
 11 27  1  0  0  0  0
 12 13  1  0  0  0  0
 12 28  1  0  0  0  0
 12 29  1  0  0  0  0
 13 30  1  0  0  0  0
 13 31  1  0  0  0  0
 14 15  1  0  0  0  0
 15 32  1  0  0  0  0
M  END
$$$$
