
  -OEChem-12102412493D

 15 15  0     0  0  0  0  0  0999 V2000
    1.8888   -1.0386   -0.1181 C   0  0  0  0  0  0  0  0  0  0  0  0
    0.8067   -0.4639    0.5528 C   0  0  0  0  0  0  0  0  0  0  0  0
    1.7981   -1.0777    2.6827 C   0  0  0  0  0  0  0  0  0  0  0  0
    2.8834   -1.6543    2.0159 C   0  0  0  0  0  0  0  0  0  0  0  0
    2.9100   -1.6246    0.6190 C   0  0  0  0  0  0  0  0  0  0  0  0
    0.7661   -0.4859    1.9505 C   0  0  0  0  0  0  0  0  0  0  0  0
    4.0120   -2.3003    2.7820 C   0  0  0  0  0  0  0  0  0  0  0  0
    3.9512   -2.1772   -0.0354 F   0  0  0  0  0  0  0  0  0  0  0  0
    3.8078   -2.2309    4.1188 F   0  0  0  0  0  0  0  0  0  0  0  0
    4.1481   -3.6099    2.4657 F   0  0  0  0  0  0  0  0  0  0  0  0
    5.1991   -1.7006    2.5271 F   0  0  0  0  0  0  0  0  0  0  0  0
   -0.8787    0.3876    2.9716 I   0  0  0  0  0  0  0  0  0  0  0  0
    1.9473   -1.0365   -1.2019 H   0  0  0  0  0  0  0  0  0  0  0  0
    0.0051   -0.0043   -0.0157 H   0  0  0  0  0  0  0  0  0  0  0  0
    1.7703   -1.0968    3.7658 H   0  0  0  0  0  0  0  0  0  0  0  0
  1  2  1  0  0  0  0
  1  5  2  0  0  0  0
  1 13  1  0  0  0  0
  2  6  2  0  0  0  0
  2 14  1  0  0  0  0
  3  4  2  0  0  0  0
  3  6  1  0  0  0  0
  3 15  1  0  0  0  0
  4  5  1  0  0  0  0
  4  7  1  0  0  0  0
  5  8  1  0  0  0  0
  6 12  1  0  0  0  0
  7  9  1  0  0  0  0
  7 10  1  0  0  0  0
  7 11  1  0  0  0  0
M  END
$$$$
