
  -OEChem-12102412493D

 15 15  0     0  0  0  0  0  0999 V2000
    1.8287   -1.1276   -0.0938 C   0  0  0  0  0  0  0  0  0  0  0  0
    1.8405   -1.0138    2.6869 C   0  0  0  0  0  0  0  0  0  0  0  0
    0.7534   -0.5076    0.5627 C   0  0  0  0  0  0  0  0  0  0  0  0
    0.7874   -0.4656    1.9655 C   0  0  0  0  0  0  0  0  0  0  0  0
    2.8985   -1.6251    2.0102 C   0  0  0  0  0  0  0  0  0  0  0  0
    2.8985   -1.6859    0.6057 C   0  0  0  0  0  0  0  0  0  0  0  0
   -0.3749    0.0798   -0.2103 C   0  0  0  0  0  0  0  0  0  0  0  0
   -1.3479    0.6353    0.2576 O   0  0  0  0  0  0  0  0  0  0  0  0
   -0.2035   -0.0726   -1.5552 O   0  0  0  0  0  0  0  0  0  0  0  0
   -0.2012    0.1085    2.6646 F   0  0  0  0  0  0  0  0  0  0  0  0
    4.1908   -2.2948    2.9643 Cl  0  0  0  0  0  0  0  0  0  0  0  0
    4.4655   -2.5956   -0.4944 I   0  0  0  0  0  0  0  0  0  0  0  0
    1.8159   -1.1673   -1.1758 H   0  0  0  0  0  0  0  0  0  0  0  0
    1.8286   -0.9604    3.7700 H   0  0  0  0  0  0  0  0  0  0  0  0
   -0.9853    0.3396   -1.9698 H   0  0  0  0  0  0  0  0  0  0  0  0
  1  3  1  0  0  0  0
  1  6  2  0  0  0  0
  1 13  1  0  0  0  0
  2  4  1  0  0  0  0
  2  5  2  0  0  0  0
  2 14  1  0  0  0  0
  3  4  2  0  0  0  0
  3  7  1  0  0  0  0
  4 10  1  0  0  0  0
  5  6  1  0  0  0  0
  5 11  1  0  0  0  0
  6 12  1  0  0  0  0
  7  8  2  0  0  0  0
  7  9  1  0  0  0  0
  9 15  1  0  0  0  0
M  END
$$$$
