21
0 1 C9H10IN
C                     0.116428956046     3.508666616118     2.138957934458
C                     0.415480634692     2.492702168077     1.227353545445
C                    -0.515122020533     3.215745286121     3.351328827327
C                    -0.533661569480     0.859217564983     2.737580668599
C                     0.092063245386     1.161118402524     1.517367851019
C                    -0.834068185208     1.884757210062     3.636243986591
C                     0.380045335843     0.303217366941    -0.967581235909
C                    -0.468838789952    -0.989815971109    -1.055414503261
C                     0.430236508374     0.045471472740     0.561874234417
N                    -0.576991747805    -1.067412046024     0.440916743847
I                    -1.795915987126     1.411980034596     5.478552262430
H                     0.370148055095     4.539748371168     1.906354678315
H                     0.902117501068     2.738499378446     0.287175836059
H                    -0.752958447698     4.007097487825     4.054550215918
H                    -0.775003049527    -0.171963876470     2.977209392518
H                     1.335893247170     0.312319109129    -1.498798128387
H                    -0.187457322639     1.201093988924    -1.228449344445
H                    -1.426250033638    -0.906962949239    -1.578895809189
H                     0.072976654205    -1.853960334676    -1.452851607973
H                     1.393645044391    -0.388382041245     0.860121172112
H                    -1.491247769736    -0.721575852517     0.730590349258
