33
0 1 C13H16IN3
C                     0.062390395313     3.620105515736     6.281368654479
C                    -0.906761232178     4.223531395623     7.093907905174
C                    -0.298239926097     3.079276696029     5.053818805456
C                    -2.233653169703     4.278726324981     6.665794619815
C                    -1.633783381839     3.119544330040     4.592653720071
C                    -2.588600974554     3.731455884006     5.427951681366
C                    -0.517860285052     0.822269919999     0.526972721912
C                    -1.966749816246     2.535011463018     3.289984848198
C                    -1.182621825403     0.281313780255    -0.727926476471
C                    -1.141869422733    -1.257347510833    -0.806346109879
C                     0.236554569457    -1.822381377707    -1.174265312897
C                     1.372054132644    -1.466667615302    -0.205066773846
C                     1.632849442272     0.042793359795    -0.052548392416
N                     0.712451027619     0.727145860709     0.849666191502
N                    -1.054874869509     1.978876943924     2.569673697464
N                    -1.424456350440     1.460155158373     1.383252723654
I                    -4.657001377841     3.875575207082     4.880640229158
H                     1.097492013292     3.574048196198     6.608957886410
H                    -0.635538956582     4.649888103691     8.055938289106
H                     0.438945013685     2.608185066397     4.411025273824
H                    -2.987866481780     4.744736985539     7.291245373803
H                    -3.009875194810     2.589717591386     2.958973681250
H                    -2.222252411832     0.623722111962    -0.782344922941
H                    -0.674563981959     0.706344174438    -1.602414428846
H                    -1.476270530643    -1.674431499556     0.151655425693
H                    -1.866481360703    -1.584472008754    -1.561387494331
H                     0.158448362419    -2.913624326735    -1.253057291266
H                     0.504330298005    -1.461711039916    -2.177445051199
H                     1.169013308457    -1.884162314334     0.788957796537
H                     2.292992493264    -1.942250223752    -0.565066866365
H                     2.637719626590     0.183549608235     0.357568713740
H                     1.639388119932     0.509059750532    -1.052153639204
H                    -2.401545519672     1.511096296723     1.101398928639
