
  -OEChem-12102412493D

 32 33  0     0  0  0  0  0  0999 V2000
   -1.2325    2.6659    3.7839 C   0  0  0  0  0  0  0  0  0  0  0  0
   -0.5897    2.6234    5.0233 C   0  0  0  0  0  0  0  0  0  0  0  0
   -0.9075    1.7223    2.8079 C   0  0  0  0  0  0  0  0  0  0  0  0
    0.3701    1.6406    5.2831 C   0  0  0  0  0  0  0  0  0  0  0  0
    0.0630    0.7355    3.0465 C   0  0  0  0  0  0  0  0  0  0  0  0
    0.6997    0.7042    4.2977 C   0  0  0  0  0  0  0  0  0  0  0  0
   -0.0207   -1.8342   -0.5830 C   0  0  0  0  0  0  0  0  0  0  0  0
    0.4202   -0.2072    1.9257 C   0  0  0  0  0  0  0  0  0  0  0  0
    0.2178   -3.0792   -1.4000 C   0  0  0  0  0  0  0  0  0  0  0  0
    0.4106   -0.5533   -1.2524 C   0  0  0  0  0  0  0  0  0  0  0  0
    1.7054   -3.1654   -1.8017 C   0  0  0  0  0  0  0  0  0  0  0  0
    1.8903   -0.6384   -1.6833 C   0  0  0  0  0  0  0  0  0  0  0  0
    2.1591   -1.8916   -2.5279 C   0  0  0  0  0  0  0  0  0  0  0  0
   -0.5460   -2.0011    0.5802 N   0  0  0  0  0  0  0  0  0  0  0  0
   -0.6812   -0.8541    1.3927 N   0  0  0  0  0  0  0  0  0  0  0  0
    1.5617   -0.3333    1.4999 O   0  0  0  0  0  0  0  0  0  0  0  0
    2.1287   -0.7937    4.7989 I   0  0  0  0  0  0  0  0  0  0  0  0
   -1.9776    3.4287    3.5761 H   0  0  0  0  0  0  0  0  0  0  0  0
   -0.8317    3.3505    5.7938 H   0  0  0  0  0  0  0  0  0  0  0  0
   -1.3936    1.7525    1.8365 H   0  0  0  0  0  0  0  0  0  0  0  0
    0.8582    1.6014    6.2515 H   0  0  0  0  0  0  0  0  0  0  0  0
   -0.0968   -3.9562   -0.8297 H   0  0  0  0  0  0  0  0  0  0  0  0
   -0.3933   -3.0261   -2.3121 H   0  0  0  0  0  0  0  0  0  0  0  0
   -0.2140   -0.4422   -2.1511 H   0  0  0  0  0  0  0  0  0  0  0  0
    0.2370    0.3157   -0.6193 H   0  0  0  0  0  0  0  0  0  0  0  0
    2.3085   -3.3059   -0.8964 H   0  0  0  0  0  0  0  0  0  0  0  0
    1.8621   -4.0469   -2.4334 H   0  0  0  0  0  0  0  0  0  0  0  0
    2.1541    0.2647   -2.2451 H   0  0  0  0  0  0  0  0  0  0  0  0
    2.5067   -0.6527   -0.7799 H   0  0  0  0  0  0  0  0  0  0  0  0
    3.2268   -1.9566   -2.7672 H   0  0  0  0  0  0  0  0  0  0  0  0
    1.6258   -1.8120   -3.4858 H   0  0  0  0  0  0  0  0  0  0  0  0
   -1.4526   -0.9694    2.0414 H   0  0  0  0  0  0  0  0  0  0  0  0
  1  2  1  0  0  0  0
  1  3  2  0  0  0  0
  1 18  1  0  0  0  0
  2  4  2  0  0  0  0
  2 19  1  0  0  0  0
  3  5  1  0  0  0  0
  3 20  1  0  0  0  0
  4  6  1  0  0  0  0
  4 21  1  0  0  0  0
  5  6  2  0  0  0  0
  5  8  1  0  0  0  0
  6 17  1  0  0  0  0
  7  9  1  0  0  0  0
  7 10  1  0  0  0  0
  7 14  2  0  0  0  0
  8 15  1  0  0  0  0
  8 16  2  0  0  0  0
  9 11  1  0  0  0  0
  9 22  1  0  0  0  0
  9 23  1  0  0  0  0
 10 12  1  0  0  0  0
 10 24  1  0  0  0  0
 10 25  1  0  0  0  0
 11 13  1  0  0  0  0
 11 26  1  0  0  0  0
 11 27  1  0  0  0  0
 12 13  1  0  0  0  0
 12 28  1  0  0  0  0
 12 29  1  0  0  0  0
 13 30  1  0  0  0  0
 13 31  1  0  0  0  0
 14 15  1  0  0  0  0
 15 32  1  0  0  0  0
M  END
$$$$
