16
0 1 C8H4INO2
C                     4.042733614718    -2.173684659731    -0.133313370973
C                     1.932405029917    -0.987145451856    -0.101442197056
C                     0.830546240990    -0.432162761047     0.546055391889
C                     1.732468301039    -1.159759745328     2.678133895606
C                     2.946622510524    -1.633685304135     0.624894234192
C                     2.841840236875    -1.719028909130     2.030829265839
C                     0.735480883328    -0.521479290953     1.938722151662
C                     3.905705107512    -2.400830908183     2.825902736941
N                     4.858103471357    -2.556352671914    -0.871917320612
O                     4.901091991707    -2.913732352970     2.357906365358
O                     3.645722254240    -2.392020557426     4.161074874326
I                    -0.936792636854     0.319320118334     2.937341705352
H                     2.015398786466    -0.923059604511    -1.181658786380
H                     0.056780746456     0.063450961695    -0.030999052831
H                     1.662158969855    -1.230841209562     3.756328678729
H                     4.393155541515    -2.856948299157     4.583873987508
