19
0 1 C8F3H4IO3
C                     1.915367666901    -0.974762673376    -0.086784538664
C                     2.890557624416    -1.659264513391     2.008642267715
C                     0.827977376680    -0.391986473606     0.582046686651
C                     1.818562004146    -1.084385161635     2.692681294633
C                     0.772362613999    -0.434511344760     1.996418755700
C                     2.940112202055    -1.601267066817     0.616732501234
C                    -0.254284011596     0.257133577958    -0.214644600895
C                     1.759404114284    -1.214102477122     4.190623272503
O                    -1.314832592156     0.671411789734     0.204712844252
O                    -0.276292036696     0.143617006901     2.618551960169
O                     0.073586303394     0.338417192515    -1.540109268106
F                     2.904363270456    -1.673278993925     4.723855509929
F                     1.494546755719    -0.007632015987     4.791817019414
F                     0.761781451083    -2.046322203998     4.589757406195
I                     4.574388263752    -2.471480505604    -0.422871113033
H                     1.940815751336    -0.924811011742    -1.168031859360
H                     3.677174510310    -2.149266761614     2.570648822894
H                    -0.130455898703     0.193796881499     3.578026788597
H                    -0.695460877793     0.755683101780    -1.972739583677
