33
0 1 C13H16IN3
C                    -5.571731727765     1.053570521769     5.834813178195
C                    -5.157286174280    -0.069591264167     6.555630169424
C                    -4.939706904744     1.368006535536     4.636162183490
C                    -4.123954617028    -0.866338977879     6.057242118737
C                    -3.878040744250     0.595051317147     4.112929643769
C                    -3.491961565807    -0.548792767390     4.849404131395
C                    -0.605404716899     0.743099796887     0.560589577362
C                    -3.308942600603     1.073434310228     2.849724633349
C                     0.329565333098    -0.142446255240     1.352016604724
C                     0.408315622886    -1.569437348643     0.777638166824
C                     1.228561233675    -1.674088211716    -0.515433187317
C                     0.721763620466    -0.826638256706    -1.691409435971
C                     0.678896599204     0.689339757995    -1.423692139171
N                    -0.482642091736     1.126747443090    -0.655102696270
N                    -2.169747634201     0.692937210509     2.386170561571
N                    -1.742737302318     1.216048367561     1.224767133618
I                    -2.002474135813    -1.942313254049     4.214350827198
H                    -6.379747651041     1.679255510759     6.203656615670
H                    -5.636196476577    -0.335582067400     7.493938682024
H                    -5.257653490710     2.246160384205     4.078374139074
H                    -3.813942508867    -1.748990033780     6.606984505215
H                    -3.911284042924     1.821169376682     2.316562083270
H                     1.326899774639     0.315357036118     1.327961272373
H                     0.006162400913    -0.175185036361     2.391347803854
H                     0.864548443285    -2.217008043420     1.535429716990
H                    -0.608085343437    -1.948626904392     0.618105282170
H                     2.264800318069    -1.381404836835    -0.294477200957
H                     1.268326276338    -2.725786864354    -0.825006835116
H                     1.378532812192    -1.004833253041    -2.552204562887
H                    -0.282853606562    -1.152090909191    -1.989277620369
H                     1.619493565110     0.997633400207    -0.938391106579
H                     0.639223860922     1.214729589159    -2.382815620390
H                    -2.364732185156     1.788501457681     0.649129788425
