18
0 1 C9H6INO
C                     5.289974364713    -2.845844266823    -2.206536361977
C                     1.849616985717    -1.016434209235    -0.114536565423
C                     2.868841837431    -1.646351546972     1.988851008285
C                     0.775594341558    -0.446104141041     0.570309493784
C                     1.803247271704    -1.080963581167     2.683591850524
C                     2.906713939127    -1.621998848779     0.584157177661
C                     0.757827491882    -0.481321323628     1.968485374619
C                     4.080434432334    -2.247565164487    -0.094335675206
C                     4.102312576179    -2.209616353263    -1.634375054878
N                     6.219257294309    -3.342254560020    -2.695663118255
O                     4.986987046981    -2.768115437221     0.531836812997
I                    -0.871274269758     0.383457242951     3.017707160406
H                     1.843422754795    -0.978092505099    -1.199400150882
H                     3.688997435177    -2.115933936740     2.522931548531
H                    -0.035622505872     0.019038361970     0.020165213089
H                     1.784930273525    -1.105777880641     3.768235906817
H                     3.209350560537    -2.708945027026    -2.026474978787
H                     4.057962546367    -1.169715822955    -1.976549908308
