
  -OEChem-12102412493D

 18 18  0     0  0  0  0  0  0999 V2000
    4.1664   -0.8490   -2.2203 C   0  0  0  0  0  0  0  0  0  0  0  0
    1.8087   -1.0211   -0.1049 C   0  0  0  0  0  0  0  0  0  0  0  0
    2.8725   -1.6195    1.9878 C   0  0  0  0  0  0  0  0  0  0  0  0
    0.7352   -0.4682    0.5942 C   0  0  0  0  0  0  0  0  0  0  0  0
    1.8085   -1.0698    2.6961 C   0  0  0  0  0  0  0  0  0  0  0  0
    2.8867   -1.6029    0.5818 C   0  0  0  0  0  0  0  0  0  0  0  0
    0.7407   -0.4956    1.9925 C   0  0  0  0  0  0  0  0  0  0  0  0
    4.0489   -2.2218   -0.1117 C   0  0  0  0  0  0  0  0  0  0  0  0
    4.1068   -2.2006   -1.6572 C   0  0  0  0  0  0  0  0  0  0  0  0
    4.2107    0.2287   -2.6545 N   0  0  0  0  0  0  0  0  0  0  0  0
    4.9502   -2.7785    0.4951 O   0  0  0  0  0  0  0  0  0  0  0  0
   -0.8872    0.3451    3.0629 I   0  0  0  0  0  0  0  0  0  0  0  0
    1.7909   -0.9782   -1.1888 H   0  0  0  0  0  0  0  0  0  0  0  0
    3.7089   -2.0711    2.5121 H   0  0  0  0  0  0  0  0  0  0  0  0
   -0.0909   -0.0183    0.0539 H   0  0  0  0  0  0  0  0  0  0  0  0
    1.8076   -1.0866    3.7810 H   0  0  0  0  0  0  0  0  0  0  0  0
    5.0006   -2.7547   -1.9509 H   0  0  0  0  0  0  0  0  0  0  0  0
    3.2325   -2.7159   -2.0704 H   0  0  0  0  0  0  0  0  0  0  0  0
  1  9  1  0  0  0  0
  1 10  3  0  0  0  0
  2  4  1  0  0  0  0
  2  6  2  0  0  0  0
  2 13  1  0  0  0  0
  3  5  2  0  0  0  0
  3  6  1  0  0  0  0
  3 14  1  0  0  0  0
  4  7  2  0  0  0  0
  4 15  1  0  0  0  0
  5  7  1  0  0  0  0
  5 16  1  0  0  0  0
  6  8  1  0  0  0  0
  7 12  1  0  0  0  0
  8  9  1  0  0  0  0
  8 11  2  0  0  0  0
  9 17  1  0  0  0  0
  9 18  1  0  0  0  0
M  END
$$$$
