
  -OEChem-12122420533D

 15 15  0     0  0  0  0  0  0999 V2000
    1.9105   -1.0325   -0.1401 C   0  0  0  0  0  0  0  0  0  0  0  0
    0.8108   -0.4963    0.5300 C   0  0  0  0  0  0  0  0  0  0  0  0
    2.9507   -1.6113    0.5859 C   0  0  0  0  0  0  0  0  0  0  0  0
    0.7533   -0.5206    1.9291 C   0  0  0  0  0  0  0  0  0  0  0  0
    1.8001   -1.1049    2.6642 C   0  0  0  0  0  0  0  0  0  0  0  0
    2.8991   -1.6561    1.9852 C   0  0  0  0  0  0  0  0  0  0  0  0
   -0.4185    0.1511    2.6034 C   0  0  0  0  0  0  0  0  0  0  0  0
   -0.3303    1.1083    3.3301 O   0  0  0  0  0  0  0  0  0  0  0  0
   -1.6354   -0.3763    2.2809 O   0  0  0  0  0  0  0  0  0  0  0  0
    1.6872   -1.1676    4.4008 Cl  0  0  0  0  0  0  0  0  0  0  0  0
    4.5146   -2.5754    3.0077 I   0  0  0  0  0  0  0  0  0  0  0  0
    1.9617   -0.9990   -1.2243 H   0  0  0  0  0  0  0  0  0  0  0  0
    0.0048   -0.0290   -0.0296 H   0  0  0  0  0  0  0  0  0  0  0  0
    3.8066   -2.0325    0.0692 H   0  0  0  0  0  0  0  0  0  0  0  0
   -1.5099   -1.1893    1.7613 H   0  0  0  0  0  0  0  0  0  0  0  0
  1  2  1  0  0  0  0
  1  3  2  0  0  0  0
  1 12  1  0  0  0  0
  2  4  2  0  0  0  0
  2 13  1  0  0  0  0
  3  6  1  0  0  0  0
  3 14  1  0  0  0  0
  4  5  1  0  0  0  0
  4  7  1  0  0  0  0
  5  6  2  0  0  0  0
  5 10  1  0  0  0  0
  6 11  1  0  0  0  0
  7  8  2  0  0  0  0
  7  9  1  0  0  0  0
  9 15  1  0  0  0  0
M  END
$$$$
