
  -OEChem-12102412493D

 15 15  0     0  0  0  0  0  0999 V2000
    1.9148   -0.9579   -0.1041 C   0  0  0  0  0  0  0  0  0  0  0  0
    0.8920   -0.3296    0.6000 C   0  0  0  0  0  0  0  0  0  0  0  0
    2.8992   -1.6622    0.5873 C   0  0  0  0  0  0  0  0  0  0  0  0
    0.8259   -0.4076    1.9998 C   0  0  0  0  0  0  0  0  0  0  0  0
    1.8284   -1.1136    2.7038 C   0  0  0  0  0  0  0  0  0  0  0  0
    2.8650   -1.7354    1.9845 C   0  0  0  0  0  0  0  0  0  0  0  0
   -0.3447    0.2272    2.6831 C   0  0  0  0  0  0  0  0  0  0  0  0
   -0.8313   -0.1032    3.7443 O   0  0  0  0  0  0  0  0  0  0  0  0
   -0.8641    1.2488    1.9411 O   0  0  0  0  0  0  0  0  0  0  0  0
    1.8249   -1.1783    4.4415 Cl  0  0  0  0  0  0  0  0  0  0  0  0
    4.4291   -2.8083    2.9414 I   0  0  0  0  0  0  0  0  0  0  0  0
    1.9503   -0.9012   -1.1880 H   0  0  0  0  0  0  0  0  0  0  0  0
    0.1232    0.2238    0.0740 H   0  0  0  0  0  0  0  0  0  0  0  0
    3.7013   -2.1530    0.0459 H   0  0  0  0  0  0  0  0  0  0  0  0
   -1.6402    1.5667    2.4413 H   0  0  0  0  0  0  0  0  0  0  0  0
  1  2  1  0  0  0  0
  1  3  2  0  0  0  0
  1 12  1  0  0  0  0
  2  4  2  0  0  0  0
  2 13  1  0  0  0  0
  3  6  1  0  0  0  0
  3 14  1  0  0  0  0
  4  5  1  0  0  0  0
  4  7  1  0  0  0  0
  5  6  2  0  0  0  0
  5 10  1  0  0  0  0
  6 11  1  0  0  0  0
  7  8  2  0  0  0  0
  7  9  1  0  0  0  0
  9 15  1  0  0  0  0
M  END
$$$$
