
  -OEChem-12102412493D

 15 15  0     0  0  0  0  0  0999 V2000
    1.8697   -1.0271   -0.1100 C   0  0  0  0  0  0  0  0  0  0  0  0
    0.7929   -0.4546    0.5576 C   0  0  0  0  0  0  0  0  0  0  0  0
    2.9291   -1.6344    0.5883 C   0  0  0  0  0  0  0  0  0  0  0  0
    2.8710   -1.6479    1.9891 C   0  0  0  0  0  0  0  0  0  0  0  0
    1.7894   -1.0729    2.6633 C   0  0  0  0  0  0  0  0  0  0  0  0
    0.7474   -0.4750    1.9581 C   0  0  0  0  0  0  0  0  0  0  0  0
    4.0786   -2.2452   -0.1342 C   0  0  0  0  0  0  0  0  0  0  0  0
    5.0364   -2.7901    0.3756 O   0  0  0  0  0  0  0  0  0  0  0  0
    3.9462   -2.1283   -1.4873 O   0  0  0  0  0  0  0  0  0  0  0  0
    3.8297   -2.2012    2.7358 F   0  0  0  0  0  0  0  0  0  0  0  0
    1.7863   -1.1148    4.0048 F   0  0  0  0  0  0  0  0  0  0  0  0
   -0.8712    0.3841    3.0073 I   0  0  0  0  0  0  0  0  0  0  0  0
    1.9031   -1.0103   -1.1928 H   0  0  0  0  0  0  0  0  0  0  0  0
   -0.0129    0.0082   -0.0015 H   0  0  0  0  0  0  0  0  0  0  0  0
    4.7391   -2.5535   -1.8664 H   0  0  0  0  0  0  0  0  0  0  0  0
  1  2  1  0  0  0  0
  1  3  2  0  0  0  0
  1 13  1  0  0  0  0
  2  6  2  0  0  0  0
  2 14  1  0  0  0  0
  3  4  1  0  0  0  0
  3  7  1  0  0  0  0
  4  5  2  0  0  0  0
  4 10  1  0  0  0  0
  5  6  1  0  0  0  0
  5 11  1  0  0  0  0
  6 12  1  0  0  0  0
  7  8  2  0  0  0  0
  7  9  1  0  0  0  0
  9 15  1  0  0  0  0
M  END
$$$$
