
  -OEChem-12102412493D

 18 18  0     0  0  0  0  0  0999 V2000
    5.2900   -2.8458   -2.2065 C   0  0  0  0  0  0  0  0  0  0  0  0
    1.8496   -1.0164   -0.1145 C   0  0  0  0  0  0  0  0  0  0  0  0
    2.8688   -1.6464    1.9889 C   0  0  0  0  0  0  0  0  0  0  0  0
    0.7756   -0.4461    0.5703 C   0  0  0  0  0  0  0  0  0  0  0  0
    1.8032   -1.0810    2.6836 C   0  0  0  0  0  0  0  0  0  0  0  0
    2.9067   -1.6220    0.5842 C   0  0  0  0  0  0  0  0  0  0  0  0
    0.7578   -0.4813    1.9685 C   0  0  0  0  0  0  0  0  0  0  0  0
    4.0804   -2.2476   -0.0943 C   0  0  0  0  0  0  0  0  0  0  0  0
    4.1023   -2.2096   -1.6344 C   0  0  0  0  0  0  0  0  0  0  0  0
    6.2193   -3.3423   -2.6957 N   0  0  0  0  0  0  0  0  0  0  0  0
    4.9870   -2.7681    0.5318 O   0  0  0  0  0  0  0  0  0  0  0  0
   -0.8713    0.3835    3.0177 I   0  0  0  0  0  0  0  0  0  0  0  0
    1.8434   -0.9781   -1.1994 H   0  0  0  0  0  0  0  0  0  0  0  0
    3.6890   -2.1159    2.5229 H   0  0  0  0  0  0  0  0  0  0  0  0
   -0.0356    0.0190    0.0202 H   0  0  0  0  0  0  0  0  0  0  0  0
    1.7849   -1.1058    3.7682 H   0  0  0  0  0  0  0  0  0  0  0  0
    3.2094   -2.7089   -2.0265 H   0  0  0  0  0  0  0  0  0  0  0  0
    4.0580   -1.1697   -1.9765 H   0  0  0  0  0  0  0  0  0  0  0  0
  1  9  1  0  0  0  0
  1 10  3  0  0  0  0
  2  4  1  0  0  0  0
  2  6  2  0  0  0  0
  2 13  1  0  0  0  0
  3  5  2  0  0  0  0
  3  6  1  0  0  0  0
  3 14  1  0  0  0  0
  4  7  2  0  0  0  0
  4 15  1  0  0  0  0
  5  7  1  0  0  0  0
  5 16  1  0  0  0  0
  6  8  1  0  0  0  0
  7 12  1  0  0  0  0
  8  9  1  0  0  0  0
  8 11  2  0  0  0  0
  9 17  1  0  0  0  0
  9 18  1  0  0  0  0
M  END
$$$$
