15
0 1 C7ClH4IO2
C                     1.914813195020    -0.957908516802    -0.104084595831
C                     0.892019820910    -0.329594580722     0.600042865855
C                     2.899248201203    -1.662205283445     0.587278926321
C                     0.825937731914    -0.407637445248     1.999838558132
C                     1.828388264020    -1.113630219559     2.703823083761
C                     2.865030602616    -1.735368885375     1.984526106444
C                    -0.344704294037     0.227190027283     2.683081136306
O                    -0.831261196444    -0.103204965721     3.744321351479
O                    -0.864145490715     1.248787286268     1.941136157554
Cl                    1.824941685221    -1.178300326171     4.441529609465
I                     4.429076275787    -2.808267160255     2.941402754144
H                     1.950306967951    -0.901162050447    -1.187951460139
H                     0.123202651889     0.223845664354     0.073961971588
H                     3.701333222721    -2.152981252251     0.045949393846
H                    -1.640159369257     1.566657189164     2.441253929790
