21
0 1 C9H10IN
C                     0.169991855260     3.473948839232     2.185228882836
C                     0.417057058895     2.461336146725     1.256319684645
C                    -0.421735048938     3.182181099678     3.419164641350
C                    -0.513054488129     0.832966491173     2.783825126366
C                     0.081223018475     1.130770872675     1.550275942388
C                    -0.760425714944     1.856907476024     3.702132772443
C                     0.668387028673    -1.392792201231     1.000641682689
C                     1.856548916129    -1.328924157934     0.008647104879
C                     0.332883581131     0.047745934601     0.532784246583
N                     1.628385631412     0.136686801606    -0.231451195021
I                    -1.663014009101     1.383342133436     5.574367966918
H                     0.435485713466     4.501978802848     1.952282973865
H                     0.867551804420     2.700659202012     0.296489090378
H                    -0.612050447109     3.970807948788     4.139717948867
H                    -0.780973999416    -0.191064136298     3.024010190162
H                    -0.091255546334    -2.159890909595     0.826531193573
H                     0.992652588504    -1.435244384603     2.044404936755
H                     2.842245332613    -1.578086120431     0.413297376524
H                     1.700954808582    -1.902300148985    -0.910747354770
H                    -0.495560963774     0.047547064514    -0.187611842385
H                     2.298135571866     0.674421368700     0.317950697673
