20
0 1 C8H5IN4O2
C                     1.714823490211    -1.221656137839    -0.100180125284
C                     0.679046255811    -0.541050317412     0.534024505670
C                     1.772143050194    -0.924672870031     2.663676350868
C                     2.818932012547    -1.621480477367     2.038914231059
C                     2.774571229855    -1.758127225550     0.639006305587
C                     0.712638239932    -0.399869420135     1.925232625505
C                     4.512155118739    -1.994244123120    -1.170745263134
C                     3.923276860134    -2.071021545015     2.984985302372
N                     5.264369061728    -2.986028347697    -1.611106196281
N                     5.005208576300    -4.042145725296    -0.796497095385
N                     4.127000063626    -3.727860389448     0.101819294028
N                     3.799951216878    -2.419903296247    -0.104181170672
O                     4.186875221447    -1.396865680396     3.958508531594
O                     4.557910103462    -3.231234329536     2.760331589709
I                    -0.854446101077     0.629678504186     2.916533960002
H                     1.697173551656    -1.354809062281    -1.177933849785
H                    -0.140840858585    -0.135820840143    -0.049295143219
H                     1.826486194746    -0.790884366716     3.737910909333
H                     4.467411005367    -0.990846474934    -1.569658735221
H                     4.257712724404    -3.688116921340     1.941190636348
