
  -OEChem-12102412493D

 29 30  0     0  0  0  0  0  0999 V2000
   -2.6267   -7.3892    3.7414 C   0  0  0  0  0  0  0  0  0  0  0  0
   -1.5872   -7.6656    4.6353 C   0  0  0  0  0  0  0  0  0  0  0  0
   -2.7105   -6.1306    3.1497 C   0  0  0  0  0  0  0  0  0  0  0  0
   -0.6451   -6.6810    4.9399 C   0  0  0  0  0  0  0  0  0  0  0  0
   -1.7577   -5.1338    3.4183 C   0  0  0  0  0  0  0  0  0  0  0  0
   -0.7316   -5.4230    4.3306 C   0  0  0  0  0  0  0  0  0  0  0  0
    0.2352   -1.8409    0.7922 C   0  0  0  0  0  0  0  0  0  0  0  0
   -1.9694   -3.8075    2.7218 C   0  0  0  0  0  0  0  0  0  0  0  0
    0.3986   -0.4942    0.1178 C   0  0  0  0  0  0  0  0  0  0  0  0
    1.5357   -2.6298    0.6896 C   0  0  0  0  0  0  0  0  0  0  0  0
    1.9257   -0.3144    0.0384 C   0  0  0  0  0  0  0  0  0  0  0  0
    2.4471   -1.7474   -0.1914 C   0  0  0  0  0  0  0  0  0  0  0  0
   -0.8580   -2.1691    1.3736 N   0  0  0  0  0  0  0  0  0  0  0  0
   -0.8894   -3.4091    1.9663 N   0  0  0  0  0  0  0  0  0  0  0  0
   -3.0339   -3.2130    2.7880 O   0  0  0  0  0  0  0  0  0  0  0  0
    0.7058   -3.9575    4.9455 I   0  0  0  0  0  0  0  0  0  0  0  0
   -3.3702   -8.1476    3.5130 H   0  0  0  0  0  0  0  0  0  0  0  0
   -1.5125   -8.6406    5.1094 H   0  0  0  0  0  0  0  0  0  0  0  0
   -3.5230   -5.8891    2.4706 H   0  0  0  0  0  0  0  0  0  0  0  0
    0.1448   -6.8867    5.6548 H   0  0  0  0  0  0  0  0  0  0  0  0
   -0.0287   -0.5424   -0.8929 H   0  0  0  0  0  0  0  0  0  0  0  0
   -0.1274    0.2961    0.6577 H   0  0  0  0  0  0  0  0  0  0  0  0
    1.9647   -2.7616    1.6921 H   0  0  0  0  0  0  0  0  0  0  0  0
    1.3848   -3.6323    0.2709 H   0  0  0  0  0  0  0  0  0  0  0  0
    2.2348    0.3808   -0.7471 H   0  0  0  0  0  0  0  0  0  0  0  0
    2.3049    0.0718    0.9921 H   0  0  0  0  0  0  0  0  0  0  0  0
    3.5070   -1.8638    0.0502 H   0  0  0  0  0  0  0  0  0  0  0  0
    2.3177   -2.0213   -1.2446 H   0  0  0  0  0  0  0  0  0  0  0  0
   -0.0445   -3.9730    2.0035 H   0  0  0  0  0  0  0  0  0  0  0  0
  1  2  1  0  0  0  0
  1  3  2  0  0  0  0
  1 17  1  0  0  0  0
  2  4  2  0  0  0  0
  2 18  1  0  0  0  0
  3  5  1  0  0  0  0
  3 19  1  0  0  0  0
  4  6  1  0  0  0  0
  4 20  1  0  0  0  0
  5  6  2  0  0  0  0
  5  8  1  0  0  0  0
  6 16  1  0  0  0  0
  7  9  1  0  0  0  0
  7 10  1  0  0  0  0
  7 13  2  0  0  0  0
  8 14  1  0  0  0  0
  8 15  2  0  0  0  0
  9 11  1  0  0  0  0
  9 21  1  0  0  0  0
  9 22  1  0  0  0  0
 10 12  1  0  0  0  0
 10 23  1  0  0  0  0
 10 24  1  0  0  0  0
 11 12  1  0  0  0  0
 11 25  1  0  0  0  0
 11 26  1  0  0  0  0
 12 27  1  0  0  0  0
 12 28  1  0  0  0  0
 13 14  1  0  0  0  0
 14 29  1  0  0  0  0
M  END
$$$$
