
  -OEChem-12102412493D

 18 18  0     0  0  0  0  0  0999 V2000
    1.6305   -1.2317   -0.0225 C   0  0  0  0  0  0  0  0  0  0  0  0
    2.8448   -1.6654    2.0174 C   0  0  0  0  0  0  0  0  0  0  0  0
    0.6156   -0.5789    0.6939 C   0  0  0  0  0  0  0  0  0  0  0  0
    0.7183   -0.4229    2.1113 C   0  0  0  0  0  0  0  0  0  0  0  0
    2.7350   -1.7712    0.6261 C   0  0  0  0  0  0  0  0  0  0  0  0
    1.8547   -1.0047    2.7354 C   0  0  0  0  0  0  0  0  0  0  0  0
   -0.5653   -0.0217   -0.0332 C   0  0  0  0  0  0  0  0  0  0  0  0
   -0.2590    0.2059    2.8298 N   0  0  0  0  0  0  0  0  0  0  0  0
   -0.8244   -0.5449   -1.2806 N   0  0  0  0  0  0  0  0  0  0  0  0
   -1.2733    0.8863    0.4206 O   0  0  0  0  0  0  0  0  0  0  0  0
    4.2644   -2.7431   -0.4875 I   0  0  0  0  0  0  0  0  0  0  0  0
    2.0946   -0.8571    4.8513 I   0  0  0  0  0  0  0  0  0  0  0  0
    1.5707   -1.2794   -1.1039 H   0  0  0  0  0  0  0  0  0  0  0  0
    3.7004   -2.0850    2.5345 H   0  0  0  0  0  0  0  0  0  0  0  0
   -0.0482    0.4662    3.7844 H   0  0  0  0  0  0  0  0  0  0  0  0
   -0.8830    0.8063    2.2972 H   0  0  0  0  0  0  0  0  0  0  0  0
   -0.5425   -1.4914   -1.4979 H   0  0  0  0  0  0  0  0  0  0  0  0
   -1.6989   -0.2356   -1.6893 H   0  0  0  0  0  0  0  0  0  0  0  0
  1  3  1  0  0  0  0
  1  5  2  0  0  0  0
  1 13  1  0  0  0  0
  2  5  1  0  0  0  0
  2  6  2  0  0  0  0
  2 14  1  0  0  0  0
  3  4  2  0  0  0  0
  3  7  1  0  0  0  0
  4  6  1  0  0  0  0
  4  8  1  0  0  0  0
  5 11  1  0  0  0  0
  6 12  1  0  0  0  0
  7  9  1  0  0  0  0
  7 10  2  0  0  0  0
  8 15  1  0  0  0  0
  8 16  1  0  0  0  0
  9 17  1  0  0  0  0
  9 18  1  0  0  0  0
M  END
$$$$
