
  -OEChem-12122420533D

 15 15  0     0  0  0  0  0  0999 V2000
    2.0046   -0.8843   -0.0626 C   0  0  0  0  0  0  0  0  0  0  0  0
    0.8757   -0.3647    0.5618 C   0  0  0  0  0  0  0  0  0  0  0  0
    1.7239   -1.1707    2.6911 C   0  0  0  0  0  0  0  0  0  0  0  0
    3.0092   -1.5637    0.6528 C   0  0  0  0  0  0  0  0  0  0  0  0
    2.8497   -1.6956    2.0468 C   0  0  0  0  0  0  0  0  0  0  0  0
    0.7430   -0.5146    1.9455 C   0  0  0  0  0  0  0  0  0  0  0  0
    4.1680   -2.1265   -0.1005 C   0  0  0  0  0  0  0  0  0  0  0  0
    4.9743   -2.9368    0.3093 O   0  0  0  0  0  0  0  0  0  0  0  0
    4.2363   -1.6332   -1.3724 O   0  0  0  0  0  0  0  0  0  0  0  0
    4.1309   -2.5420    3.1844 Br  0  0  0  0  0  0  0  0  0  0  0  0
   -0.9666    0.2679    2.9318 I   0  0  0  0  0  0  0  0  0  0  0  0
    2.1190   -0.7725   -1.1344 H   0  0  0  0  0  0  0  0  0  0  0  0
    0.1161    0.1471   -0.0192 H   0  0  0  0  0  0  0  0  0  0  0  0
    1.6251   -1.2779    3.7649 H   0  0  0  0  0  0  0  0  0  0  0  0
    5.0030   -2.0771   -1.7822 H   0  0  0  0  0  0  0  0  0  0  0  0
  1  2  1  0  0  0  0
  1  4  2  0  0  0  0
  1 12  1  0  0  0  0
  2  6  2  0  0  0  0
  2 13  1  0  0  0  0
  3  5  2  0  0  0  0
  3  6  1  0  0  0  0
  3 14  1  0  0  0  0
  4  5  1  0  0  0  0
  4  7  1  0  0  0  0
  5 10  1  0  0  0  0
  6 11  1  0  0  0  0
  7  8  2  0  0  0  0
  7  9  1  0  0  0  0
  9 15  1  0  0  0  0
M  END
$$$$
