
  -OEChem-12102412493D

 29 30  0     0  0  0  0  0  0999 V2000
   -1.0482   -6.5234    5.5146 C   0  0  0  0  0  0  0  0  0  0  0  0
   -1.4927   -7.6044    4.7463 C   0  0  0  0  0  0  0  0  0  0  0  0
   -1.0350   -5.2445    4.9621 C   0  0  0  0  0  0  0  0  0  0  0  0
   -1.9299   -7.3994    3.4362 C   0  0  0  0  0  0  0  0  0  0  0  0
   -1.4425   -5.0182    3.6366 C   0  0  0  0  0  0  0  0  0  0  0  0
   -1.9013   -6.1116    2.8864 C   0  0  0  0  0  0  0  0  0  0  0  0
    0.0495   -2.1500    0.2784 C   0  0  0  0  0  0  0  0  0  0  0  0
   -1.3913   -3.5816    3.1647 C   0  0  0  0  0  0  0  0  0  0  0  0
    0.1857   -0.8626   -0.5094 C   0  0  0  0  0  0  0  0  0  0  0  0
    0.7954   -3.2722   -0.4343 C   0  0  0  0  0  0  0  0  0  0  0  0
    1.3805   -1.1324   -1.4426 C   0  0  0  0  0  0  0  0  0  0  0  0
    1.2583   -2.6359   -1.7629 C   0  0  0  0  0  0  0  0  0  0  0  0
   -0.5863   -2.1885    1.3898 N   0  0  0  0  0  0  0  0  0  0  0  0
   -0.6376   -3.4060    2.0258 N   0  0  0  0  0  0  0  0  0  0  0  0
   -1.9181   -2.6814    3.7998 O   0  0  0  0  0  0  0  0  0  0  0  0
   -2.6885   -5.8984    0.9044 I   0  0  0  0  0  0  0  0  0  0  0  0
   -0.7210   -6.6761    6.5392 H   0  0  0  0  0  0  0  0  0  0  0  0
   -1.5148   -8.6067    5.1657 H   0  0  0  0  0  0  0  0  0  0  0  0
   -0.7156   -4.3887    5.5497 H   0  0  0  0  0  0  0  0  0  0  0  0
   -2.3012   -8.2336    2.8501 H   0  0  0  0  0  0  0  0  0  0  0  0
   -0.7269   -0.7035   -1.0993 H   0  0  0  0  0  0  0  0  0  0  0  0
    0.3050    0.0029    0.1461 H   0  0  0  0  0  0  0  0  0  0  0  0
    1.6569   -3.5812    0.1745 H   0  0  0  0  0  0  0  0  0  0  0  0
    0.1728   -4.1615   -0.5861 H   0  0  0  0  0  0  0  0  0  0  0  0
    1.3728   -0.5060   -2.3389 H   0  0  0  0  0  0  0  0  0  0  0  0
    2.3199   -0.9394   -0.9109 H   0  0  0  0  0  0  0  0  0  0  0  0
    2.1875   -3.0730   -2.1383 H   0  0  0  0  0  0  0  0  0  0  0  0
    0.4900   -2.7879   -2.5295 H   0  0  0  0  0  0  0  0  0  0  0  0
   -0.2648   -4.2320    1.5657 H   0  0  0  0  0  0  0  0  0  0  0  0
  1  2  1  0  0  0  0
  1  3  2  0  0  0  0
  1 17  1  0  0  0  0
  2  4  2  0  0  0  0
  2 18  1  0  0  0  0
  3  5  1  0  0  0  0
  3 19  1  0  0  0  0
  4  6  1  0  0  0  0
  4 20  1  0  0  0  0
  5  6  2  0  0  0  0
  5  8  1  0  0  0  0
  6 16  1  0  0  0  0
  7  9  1  0  0  0  0
  7 10  1  0  0  0  0
  7 13  2  0  0  0  0
  8 14  1  0  0  0  0
  8 15  2  0  0  0  0
  9 11  1  0  0  0  0
  9 21  1  0  0  0  0
  9 22  1  0  0  0  0
 10 12  1  0  0  0  0
 10 23  1  0  0  0  0
 10 24  1  0  0  0  0
 11 12  1  0  0  0  0
 11 25  1  0  0  0  0
 11 26  1  0  0  0  0
 12 27  1  0  0  0  0
 12 28  1  0  0  0  0
 13 14  1  0  0  0  0
 14 29  1  0  0  0  0
M  END
$$$$
