
  -OEChem-12122420533D

 16 16  0     0  0  0  0  0  0999 V2000
    4.0427   -2.1737   -0.1333 C   0  0  0  0  0  0  0  0  0  0  0  0
    1.9324   -0.9871   -0.1014 C   0  0  0  0  0  0  0  0  0  0  0  0
    0.8305   -0.4322    0.5461 C   0  0  0  0  0  0  0  0  0  0  0  0
    1.7325   -1.1598    2.6781 C   0  0  0  0  0  0  0  0  0  0  0  0
    2.9466   -1.6337    0.6249 C   0  0  0  0  0  0  0  0  0  0  0  0
    2.8418   -1.7190    2.0308 C   0  0  0  0  0  0  0  0  0  0  0  0
    0.7355   -0.5215    1.9387 C   0  0  0  0  0  0  0  0  0  0  0  0
    3.9057   -2.4008    2.8259 C   0  0  0  0  0  0  0  0  0  0  0  0
    4.8581   -2.5564   -0.8719 N   0  0  0  0  0  0  0  0  0  0  0  0
    4.9011   -2.9137    2.3579 O   0  0  0  0  0  0  0  0  0  0  0  0
    3.6457   -2.3920    4.1611 O   0  0  0  0  0  0  0  0  0  0  0  0
   -0.9368    0.3193    2.9373 I   0  0  0  0  0  0  0  0  0  0  0  0
    2.0154   -0.9231   -1.1817 H   0  0  0  0  0  0  0  0  0  0  0  0
    0.0568    0.0635   -0.0310 H   0  0  0  0  0  0  0  0  0  0  0  0
    1.6622   -1.2308    3.7563 H   0  0  0  0  0  0  0  0  0  0  0  0
    4.3932   -2.8569    4.5839 H   0  0  0  0  0  0  0  0  0  0  0  0
  1  5  1  0  0  0  0
  1  9  3  0  0  0  0
  2  3  1  0  0  0  0
  2  5  2  0  0  0  0
  2 13  1  0  0  0  0
  3  7  2  0  0  0  0
  3 14  1  0  0  0  0
  4  6  2  0  0  0  0
  4  7  1  0  0  0  0
  4 15  1  0  0  0  0
  5  6  1  0  0  0  0
  6  8  1  0  0  0  0
  7 12  1  0  0  0  0
  8 10  2  0  0  0  0
  8 11  1  0  0  0  0
 11 16  1  0  0  0  0
M  END
$$$$
