15
0 1 BrC7H4IO2
C                     2.004576705041    -0.884347201156    -0.062618825239
C                     0.875674817481    -0.364660651465     0.561754280527
C                     1.723919956502    -1.170727154690     2.691072204322
C                     3.009209632757    -1.563723864634     0.652825636149
C                     2.849693358976    -1.695615018935     2.046763326121
C                     0.743033025307    -0.514640760319     1.945524211404
C                     4.168015012277    -2.126518597517    -0.100451175143
O                     4.974331588776    -2.936788275949     0.309304439477
O                     4.236279994309    -1.633236583027    -1.372419524216
Br                    4.130876699452    -2.541957998721     3.184351430048
I                    -0.966606687283     0.267858772327     2.931843448297
H                     2.119046408923    -0.772461236755    -1.134366737657
H                     0.116099728444     0.147094823030    -0.019213170369
H                     1.625136954307    -1.277915882872     3.764883426309
H                     5.003008654341    -2.077113279602    -1.782221679972
