29   
torsion grid (-165,)
C       -0.8844858724    1.4478048541    2.4249232894
C       -1.9006070316    1.8095799103    3.2792463665
C       -1.2216404269    0.8496063976    1.1866054777
C       -3.2160444904    1.5489820929    2.8433788849
C       -0.3429141499    0.8857223797   -1.2451777781
C       -0.5766023591   -0.5563149621   -0.8938553338
C       -0.1668457508    0.4291458787    0.2006487303
C        0.3203426487   -2.8771965566   -0.4265546186
C       -5.5633580966    1.6229613376    3.2170466005
C        0.3718438257   -1.6475273446   -1.3425845784
N       -2.4961463002    0.6352080363    0.8503754533
N       -3.4940572470    0.9877572234    1.6730585071
N        1.2033844634    0.3389214066    0.6543868526
O       -4.2262997696    1.8954641180    3.6746452972
H        0.1519661079    1.6196317392    2.6969057437
H       -1.7265921109    2.2735618050    4.2453220769
H        0.5722011797    1.1375106622   -1.7745113528
H       -1.2055541225    1.5088059093   -1.4599601430
H       -1.6228736550   -0.8427049550   -0.8324539982
H        0.6262105177   -2.6186936064    0.5934796108
H        0.9871203358   -3.6693269374   -0.7844503865
H       -0.6933271647   -3.2903355301   -0.3724283228
H       -6.2135286464    1.9714401834    4.0202136857
H       -5.7035085290    0.5527684181    3.0440288094
H       -5.7732634556    2.1617579592    2.2894032303
H        0.1042117055   -1.9400320612   -2.3664272658
H        1.3916938182   -1.2548681834   -1.3772707252
H        1.5848279464    1.2541232606    0.8846618189
H        1.2845936339   -0.2581471209    1.4748179832
29   
torsion grid (-150,)
C       -0.8934392138    1.6501416435    2.3210477790
C       -1.9110029455    2.0401492666    3.1588208753
C       -1.2065916468    0.8370478560    1.2033540939
C       -3.2066024414    1.5867451853    2.8296301447
C       -0.2039214504    0.9240859756   -1.1808134317
C       -0.5388156241   -0.5184011928   -0.9075751916
C       -0.1334938094    0.3881445551    0.2470272977
C        0.2038233517   -2.9044073258   -0.5102617747
C       -5.5354955073    1.4916824058    3.2995547482
C        0.3708834989   -1.6399214569   -1.3627884785
N       -2.4593566446    0.4469822903    0.9658516381
N       -3.4627685107    0.8258839406    1.7738887669
N        1.2052586224    0.2044233084    0.7680136844
O       -4.2188254743    1.9588827359    3.6465245930
H        0.1287438125    1.9626501929    2.5111967573
H       -1.7555735765    2.6638527273    4.0338572602
H        0.7513882209    1.1423892021   -1.6512498630
H       -1.0129265781    1.6093771092   -1.4154924742
H       -1.5993691738   -0.7512956385   -0.9135127973
H        0.4692575671   -2.7082617858    0.5345412396
H        0.8446066270   -3.7162385596   -0.8716265222
H       -0.8323422271   -3.2607945720   -0.5262870585
H       -6.1915746704    1.8974541623    4.0703174927
H       -5.5711157290    0.3992295215    3.2978768883
H       -5.8283765025    1.8567787385    2.3117590264
H        0.1424518156   -1.8693324325   -2.4117962599
H        1.4113508559   -1.3055124893   -1.3259234193
H        1.6386990549    1.0904857281    1.0184422204
H        1.1985061384   -0.3910042775    1.5937279496
29   
torsion grid (-135,)
C       -0.9551648163    1.8389507160    2.1750399360
C       -1.9799115175    2.2471422496    2.9931065303
C       -1.2170404892    0.8398642793    1.2035621625
C       -3.2306451082    1.6205293581    2.7929310571
C       -0.0682237036    0.9628640181   -1.1142803372
C       -0.5077151408   -0.4684053091   -0.9221432704
C       -0.1211489909    0.3639532403    0.2864398212
C        0.0621167172   -2.9103271469   -0.5880858532
C       -5.5202909544    1.3663473712    3.3808420808
C        0.3572977696   -1.6261809160   -1.3740213812
N       -2.4272837714    0.2991557243    1.0768798936
N       -3.4401954619    0.6923389772    1.8700208243
N        1.1711471324    0.0851341308    0.8842283417
O       -4.2486276505    2.0066820952    3.5951343469
H        0.0343436491    2.2788456357    2.2626586004
H       -1.8661848031    3.0097024084    3.7575478352
H        0.9262418020    1.1357149341   -1.5178560793
H       -0.8147985475    1.7073989914   -1.3754656664
H       -1.5773339925   -0.6386789415   -1.0004622452
H        0.2757674634   -2.7728892710    0.4776104382
H        0.6722929951   -3.7462248763   -0.9476033583
H       -0.9912808621   -3.1981813336   -0.6780248293
H       -6.1894741707    1.8140721796    4.1162561689
H       -5.4415104041    0.2873404868    3.5362114792
H       -5.8812145065    1.5524061382    2.3660530846
H        0.1800353268   -1.7987236189   -2.4435802623
H        1.4119502219   -1.3594543195   -1.2617559728
H        1.6246103947    0.9361484701    1.2101758077
H        1.0707811957   -0.5406508963    1.6813136286
29   
torsion grid (-120,)
C       -1.0440245258    1.9976796228    1.9940278879
C       -2.0854978152    2.4139449009    2.7858565780
C       -1.2237024259    0.8482124519    1.1837984061
C       -3.2673686576    1.6402570915    2.7222149131
C        0.0907910391    0.9878213564   -1.0457632229
C       -0.4413333584   -0.4235480156   -0.9338904929
C       -0.0959735170    0.3471113317    0.3216355306
C       -0.0481423735   -2.9075306743   -0.6656046213
C       -5.5039854730    1.2452477113    3.4261619828
C        0.3839096184   -1.6154592647   -1.3712807547
N       -2.3727673235    0.1770606700    1.1730516392
N       -3.4017833545    0.5747564042    1.9449991978
N        1.1318234329   -0.0204221537    1.0061146589
O       -4.3004629756    2.0323029639    3.5014386038
H       -0.1036838650    2.5427672238    1.9722183935
H       -2.0370269205    3.2869359615    3.4295424750
H        1.1193553825    1.1120280268   -1.3743320373
H       -0.5915116687    1.7815032310   -1.3374449555
H       -1.5109536393   -0.5314833544   -1.0916011728
H        0.0820147219   -2.8229034672    0.4187731369
H        0.5412698263   -3.7645303056   -1.0096854636
H       -1.1051990537   -3.1274032069   -0.8517063912
H       -6.1980671155    1.7239603837    4.1176513098
H       -5.3102981806    0.2122242706    3.7259844933
H       -5.9060251389    1.2494435090    2.4098392006
H        0.2802337298   -1.7351959445   -2.4575883486
H        1.4408057969   -1.4193635169   -1.1693377993
H        1.5601577312    0.7901251259    1.4500871899
H        0.9343037079   -0.7012013428    1.7380956946
29   
torsion grid (-105,)
C       -1.1383415381    2.1200494397    1.8263437385
C       -2.1913480750    2.5403378153    2.6017849201
C       -1.2311213597    0.8604618094    1.1846920217
C       -3.2918541741    1.6575438688    2.6922832026
C        0.2256011696    1.0083334391   -0.9569724117
C       -0.3910720795   -0.3749614167   -0.9291645638
C       -0.0819599946    0.3344182501    0.3687597857
C       -0.1623621886   -2.8863588234   -0.7370437190
C       -5.4567399311    1.1537462280    3.5371423861
C        0.3898561566   -1.5981822008   -1.3614603736
N       -2.3079063307    0.0877132795    1.3108596016
N       -3.3449601056    0.4872038959    2.0701563764
N        1.0751225848   -0.1271660148    1.1190237875
O       -4.3352129741    2.0533083800    3.4555494037
H       -0.2547576824    2.7384516697    1.6880590356
H       -2.2102966625    3.4931497253    3.1219648365
H        1.2771940431    1.0812002501   -1.2209671681
H       -0.3916163446    1.8480956179   -1.2650176966
H       -1.4534968686   -0.4154903456   -1.1571469383
H       -0.1102728739   -2.8448200577    0.3561241472
H        0.4040854919   -3.7630891448   -1.0697577676
H       -1.2130398989   -3.0398913733   -1.0068659651
H       -6.1737861306    1.6550276341    4.1880005301
H       -5.1530811495    0.1940919802    3.9630340245
H       -5.8872534081    0.9815370575    2.5474322202
H        0.3523881933   -1.6718547016   -2.4561706551
H        1.4405072169   -1.4729130550   -1.0843425386
H        1.4842389661    0.6399034502    1.6511596601
H        0.7876205792   -0.8392202657    1.7895892513
29   
torsion grid (-90,)
C       -1.2289157645    2.2084492441    1.6380287728
C       -2.2967574693    2.6332250620    2.3930078241
C       -1.2177735069    0.8710843139    1.1765780735
C       -3.3028120422    1.6747196588    2.6467554794
C        0.3705722731    1.0166455051   -0.8741754944
C       -0.3229392130   -0.3297761044   -0.9329867482
C       -0.0505307793    0.3197067358    0.4048471658
C       -0.2525381640   -2.8550323771   -0.8205800517
C       -5.3846825385    1.0931921282    3.6391354103
C        0.4110872776   -1.5824395079   -1.3630764016
N       -2.2103348498    0.0254419418    1.4522205535
N       -3.2570748801    0.4273733651    2.1932851387
N        1.0290738730   -0.2372743550    1.2043284236
O       -4.3597698151    2.0734746374    3.3896790837
H       -0.4101866002    2.8773958892    1.3855654206
H       -2.3923543767    3.6423685331    2.7820098119
H        1.4375124929    1.0365129811   -1.0782711458
H       -0.1790242122    1.8988714535   -1.1918085746
H       -1.3704841355   -0.2998174246   -1.2256567574
H       -0.2662725506   -2.8530164233    0.2742492078
H        0.2809952239   -3.7525230014   -1.1523041105
H       -1.2918755674   -2.9357148718   -1.1579456316
H       -6.1301498011    1.6118938335    4.2426978665
H       -4.9770539458    0.2360443996    4.1810797461
H       -5.8222383672    0.7432763697    2.7007351905
H        0.4389085981   -1.6171073680   -2.4600702856
H        1.4474137280   -1.5287208185   -1.0176146849
H        1.4325238396    0.4858792523    1.7991942215
H        0.6543008660   -0.9573376768    1.8215629417
29   
torsion grid (-75,)
C       -1.2822542319    2.2896503891    1.4349291749
C       -2.3688761659    2.7236999598    2.1598482683
C       -1.1578589780    0.9065521652    1.1738312444
C       -3.2745639387    1.7299780200    2.5882125112
C        0.5436853993    1.0283793717   -0.7956439610
C       -0.2260094520   -0.2694295639   -0.9323442703
C        0.0192650457    0.3253025946    0.4396437113
C       -0.3300025612   -2.7956011255   -0.9023121614
C       -5.2708162911    1.1184563278    3.7284515558
C        0.4471751450   -1.5555390467   -1.3634139462
N       -2.0574081768    0.0255326529    1.6156117767
N       -3.1172711273    0.4358713427    2.3283624990
N        1.0193145721   -0.3282224654    1.2676993406
O       -4.3499619521    2.1386774976    3.2986994182
H       -0.5329185616    2.9846427320    1.0663903491
H       -2.5465427866    3.7665062252    2.4043677519
H        1.6187155263    0.9877980259   -0.9455612657
H        0.0670898898    1.9491829139   -1.1209656376
H       -1.2526846937   -0.1621751524   -1.2781619530
H       -0.4217234795   -2.8170728944    0.1883953318
H        0.1692199927   -3.7171911531   -1.2209825759
H       -1.3457187288   -2.8032519048   -1.3137809969
H       -6.0510931566    1.6531955556    4.2709398985
H       -4.7725978179    0.3964357655    4.3804212697
H       -5.6907967001    0.5890560518    2.8694405716
H        0.5365778850   -1.5587235504   -2.4577522347
H        1.4625610438   -1.5819462023   -0.9582966972
H        1.4226349265    0.3469017588    1.9168994863
H        0.5618780609   -1.0442698615    1.8320224276
29   
torsion grid (-60,)
C       -1.4279743137    2.2762568704    1.2669441812
C       -2.5409526162    2.6996517189    1.9592610745
C       -1.1621411683    0.8909242463    1.2047874823
C       -3.3288135878    1.6952236355    2.5578383788
C        0.6564076140    1.0214341595   -0.6721861218
C       -0.1712523313   -0.2234866486   -0.9077663859
C        0.0319657687    0.3009041167    0.5048615350
C       -0.4174372995   -2.7386147172   -0.9867659965
C       -5.2241082894    1.0581032022    3.8464959221
C        0.4510842533   -1.5289768664   -1.3564207167
N       -1.9547271424    0.0003213953    1.8072168499
N       -3.0373485475    0.3995263774    2.4873617423
N        0.9543553663   -0.4437607775    1.3444966655
O       -4.4286938924    2.0920221871    3.2370271730
H       -0.7628235949    2.9867643657    0.7857987047
H       -2.8186317782    3.7444328327    2.0598063559
H        1.7343687154    0.9248772365   -0.7619728942
H        0.2545502322    1.9781615338   -0.9928958417
H       -1.1698751718   -0.0418550898   -1.3025786752
H       -0.5695357296   -2.7941219487    0.0959406868
H        0.0472806789   -3.6749812868   -1.3143054455
H       -1.4074675523   -2.6743306444   -1.4528417485
H       -6.0467750632    1.5842336651    4.3317428501
H       -4.6372016531    0.4991870541    4.5798667703
H       -5.6015845344    0.3637383964    3.0915310042
H        0.5998685469   -1.4951518264   -2.4438229461
H        1.4392344550   -1.6286061537   -0.8991444660
H        1.3693938001    0.1860503375    2.0308961142
H        0.4224380008   -1.1379687296    1.8697188181
29   
torsion grid (-45,)
C       -1.5530289757    2.2280583186    1.0728465159
C       -2.6918187502    2.6473843948    1.7233676433
C       -1.1415163503    0.8859315811    1.2342791770
C       -3.3621846826    1.6857399113    2.5068875614
C        0.7833499603    1.0161284377   -0.5468307647
C       -0.1018449513   -0.1603103766   -0.8862536341
C        0.0640386468    0.2817813661    0.5659763744
C       -0.4899455802   -2.6503483746   -1.0887732839
C       -5.1613972942    1.0897273188    3.9437095438
C        0.4612733044   -1.4798237584   -1.3698411681
N       -1.8302866766    0.0373085526    2.0025100373
N       -2.9382272245    0.4335498432    2.6425093333
N        0.9101391101   -0.5513243983    1.3998053960
O       -4.4866033608    2.0804171598    3.1463966632
H       -0.9792603999    2.9164348094    0.4610886441
H       -3.0729262299    3.6619969683    1.6597398449
H        1.8564363021    0.8538177926   -0.5851413040
H        0.4663205074    2.0118350491   -0.8408000444
H       -1.0683006746    0.1024786790   -1.3148340033
H       -0.6826325441   -2.7463069351   -0.0153508385
H       -0.0693602509   -3.5971810635   -1.4444966041
H       -1.4565347166   -2.5058766191   -1.5854553794
H       -6.0264942683    1.6053241736    4.3618501223
H       -4.5086236367    0.7227206456    4.7399059314
H       -5.4768649412    0.2446178529    3.3264762731
H        0.6565531286   -1.4073593593   -2.4480317230
H        1.4215826200   -1.6576500261   -0.8785620324
H        1.3590485917    0.0332311443    2.1046951260
H        0.3119601612   -1.2030494107    1.9078557293
29   
torsion grid (-30,)
C       -1.7143398013    2.1013008750    0.8773975076
C       -2.8667277260    2.5287698429    1.4940052755
C       -1.1697453581    0.8506012647    1.2567012986
C       -3.4240041386    1.6678588357    2.4634594083
C        0.8623714079    1.0108577648   -0.3957913361
C       -0.0452482193   -0.0981529415   -0.8656298058
C        0.0507886664    0.2385242170    0.6261908242
C       -0.5035219471   -2.5577768183   -1.2318372561
C       -5.1188169351    1.1886079985    4.0609908549
C        0.4957576610   -1.4063956672   -1.4018281830
N       -1.7631554691    0.0926708064    2.1815418640
N       -2.8882260189    0.4985209563    2.7892745043
N        0.8228182455   -0.6710292189    1.4480664045
O       -4.5585050564    2.0766337525    3.0763234621
H       -1.2339110912    2.7168204443    0.1240615279
H       -3.3432793164    3.4777150937    1.2680440842
H        1.9277905008    0.8006686971   -0.3814049853
H        0.6114073083    2.0411137691   -0.6278244327
H       -0.9756560710    0.2302749457   -1.3278615083
H       -0.7320983490   -2.7196163029   -0.1734639769
H       -0.1038433951   -3.4930352241   -1.6385323470
H       -1.4477664420   -2.3457785320   -1.7471025662
H       -6.0111989705    1.6981745371    4.4257981378
H       -4.4110243652    1.0180300088    4.8762970352
H       -5.3798936655    0.2269868905    3.6116506427
H        0.7422331612   -1.2779562207   -2.4642043742
H        1.4258821113   -1.6457283279   -0.8797223935
H        1.2984625103   -0.1327544483    2.1720398204
H        0.1721831657   -1.2828805876    1.9407696051
29   
torsion grid (-15,)
C       -1.8634900197    1.9166435894    0.7323916710
C       -3.0112904452    2.3678814141    1.3360657204
C       -1.2113055499    0.7820422479    1.2807640653
C       -3.4586673396    1.6480808374    2.4665754189
C        0.8981433207    1.0031983380   -0.2436573495
C        0.0134078390   -0.0626291429   -0.8339810630
C        0.0245469928    0.1733333633    0.6821336038
C       -0.4298910984   -2.4905399291   -1.3871603643
C       -5.0382134313    1.3420292774    4.2167823265
C        0.5810903135   -1.3376290481   -1.4209469356
N       -1.7034631064    0.1545908127    2.3492638255
N       -2.8284242708    0.5859929379    2.9460402763
N        0.7403923424   -0.7956765462    1.4826185837
O       -4.5890198706    2.0845571458    3.0684194374
H       -1.4687270992    2.4232286311   -0.1426200281
H       -3.5670202969    3.2314072054    0.9837803656
H        1.9603224290    0.7843146308   -0.1849216111
H        0.6611649929    2.0508780285   -0.4034868459
H       -0.8888280986    0.2968049529   -1.3277663404
H       -0.7207776863   -2.7208584212   -0.3569718469
H       -0.0092056366   -3.3998786343   -1.8296940323
H       -1.3411482299   -2.2393486095   -1.9426871496
H       -5.9457909065    1.8498854898    4.5446728401
H       -4.2820414150    1.3544223780    5.0060246554
H       -5.2520659531    0.3043773542    3.9477709878
H        0.8912262512   -1.1416698780   -2.4559548020
H        1.4772190062   -1.6174261418   -0.8611813284
H        1.1757698251   -0.3092400893    2.2663868809
H        0.0590668693   -1.4235654077    1.9088319891
29   
torsion grid (0,)
C       -2.0310347064    1.7234532702    0.6136128616
C       -3.1628138862    2.2096048538    1.2187990531
C       -1.2949802815    0.7033665213    1.2727102871
C       -3.5067046987    1.6448172535    2.4680365425
C        0.8851211357    0.9946187654   -0.1101899722
C        0.0547793268   -0.0412443781   -0.8190119258
C       -0.0422682251    0.1013585681    0.7035110842
C       -0.3100973994   -2.4367483919   -1.5531189325
C       -4.9629855805    1.5366373082    4.3438223810
C        0.6817052462   -1.2721605775   -1.4408177054
N       -1.6838447253    0.2282909343    2.4558107362
N       -2.7941051085    0.6960695160    3.0557989785
N        0.6172506354   -0.9236738996    1.4804068400
O       -4.6221230345    2.1164745817    3.0713148675
H       -1.7112210286    2.1170702216   -0.3461808798
H       -3.7804755368    2.9890338529    0.7833739594
H        1.9448616968    0.7873274660    0.0057607014
H        0.6318508424    2.0461627790   -0.2118863797
H       -0.8107703364    0.3352766150   -1.3621612581
H       -0.6650468989   -2.7429051696   -0.5634072344
H        0.1537505177   -3.3082686683   -2.0274151134
H       -1.1868252123   -2.1590581375   -2.1500999994
H       -5.8764203375    2.0466539354    4.6515118137
H       -4.1641971353    1.7023754865    5.0713617118
H       -5.1350539548    0.4616258279    4.2459683119
H        1.0589496821   -1.0070170516   -2.4373467978
H        1.5417250107   -1.5769371844   -0.8394313005
H        0.9262931543   -0.5112494300    2.3607421558
H       -0.0777903166   -1.6172975738    1.7557520253
29   
torsion grid (15,)
C       -2.2047570047    1.5099641368    0.5358218354
C       -3.3181193226    2.0263979711    1.1517486418
C       -1.3718760534    0.6265921239    1.2704069525
C       -3.5418860208    1.6344583506    2.4903546213
C        0.8749557824    0.9759803875    0.0296140183
C        0.1008361339   -0.0197800263   -0.7930274284
C       -0.1047599714    0.0313729367    0.7197408186
C       -0.1956109649   -2.3642187818   -1.7071865111
C       -4.8533236368    1.7340857168    4.4708341652
C        0.7792966587   -1.2101494048   -1.4412746272
N       -1.6457236401    0.3195381158    2.5391411443
N       -2.7345384421    0.8177862238    3.1510600192
N        0.4977750208   -1.0490366603    1.4692790609
O       -4.6381240049    2.1347775570    3.1051549674
H       -1.9751839552    1.7777087470   -0.4903681500
H       -4.0074384818    2.7049398648    0.6587410749
H        1.9259979358    0.7691069745    0.2086133788
H        0.6108825548    2.0283461573   -0.0267406055
H       -0.7154496957    0.3879561304   -1.3860440552
H       -0.6276473545   -2.7360472203   -0.7718842082
H        0.3077218238   -3.2032787593   -2.1993904786
H       -1.0237250173   -2.0473655816   -2.3522365975
H       -5.7722503323    2.2381275715    4.7719226751
H       -4.0172409280    2.0455599696    5.1022871030
H       -4.9664175491    0.6492644629    4.5429313259
H        1.2302676686   -0.8814122330   -2.3867874017
H        1.5925362450   -1.5539166068   -0.7975927050
H        0.6581677876   -0.7243892312    2.4227778456
H       -0.1871865239   -1.7986520423    1.5661314838
29   
torsion grid (30,)
C       -2.7437197636    0.5273948080    0.6792197983
C       -3.7299424416    1.0988826545    1.4485928471
C       -1.3926571501    0.8248862563    0.9808880421
C       -3.3073809627    1.9531954940    2.4889442545
C       -0.0663538732    0.7836110951   -1.2414802448
C       -0.4225743538   -0.6553600481   -0.9651668857
C       -0.2140491214    0.3035130821    0.1991942953
C        0.2557338140   -3.0268373932   -0.3857225671
C       -3.8237428265    3.3939062016    4.3088517254
C        0.5603603323   -1.7796960237   -1.2255345085
N       -1.0773121348    1.6469772788    1.9846978722
N       -2.0305449735    2.2103856428    2.7423410440
N        1.0307181221    0.1546324450    0.9256159619
O       -4.2677734524    2.5238333011    3.2514370267
H       -3.0036002449   -0.1432934979   -0.1325796500
H       -4.7878632630    0.9151152182    1.2882732234
H        0.9489308320    0.9999028121   -1.5611191699
H       -0.8318239885    1.4452177088   -1.6368914633
H       -1.4540982528   -0.9288304443   -1.1755342224
H        0.3231743271   -2.8053779097    0.6851106220
H        0.9615487657   -3.8353467768   -0.6043003981
H       -0.7547313176   -3.4044861661   -0.5827433150
H       -4.7378206004    3.7417896133    4.7910702466
H       -3.2557095547    4.2359378963    3.9050547027
H       -3.1950918205    2.8507076497    5.0191472080
H        0.5248687274   -2.0348783755   -2.2926702732
H        1.5722844903   -1.4274878518   -1.0112777273
H        1.2330842948    1.0426561946    1.3847729456
H        0.8911152275   -0.5130543343    1.6841858470
29   
torsion grid (45,)
C       -2.6566890616    0.2901292054    0.9170078244
C       -3.6548810729    0.8423006715    1.6880043513
C       -1.3446418691    0.7989359938    1.0472590759
C       -3.2764513860    1.8862207633    2.5567476146
C        0.0725087383    0.8644533555   -1.1202274009
C       -0.3602503329   -0.5742535848   -0.9640886764
C       -0.1576105387    0.2899762166    0.2696422384
C        0.1834068733   -3.0091330271   -0.5268952193
C       -3.8464886581    3.5061334076    4.2023478317
C        0.5774053517   -1.7250839950   -1.2683672784
N       -1.0654245449    1.7822526970    1.9073070891
N       -2.0274990197    2.3279880670    2.6630815973
N        1.0536397689    0.0549418775    1.0338642993
O       -4.2465326155    2.4451795090    3.3151467272
H       -2.8710317609   -0.5273625967    0.2367051343
H       -4.6862463807    0.5046717828    1.6558259691
H        1.1090857660    1.0541383712   -1.3836410064
H       -0.6452677070    1.5856078680   -1.5000343920
H       -1.3951543363   -0.7709127942   -1.2370945952
H        0.2173163034   -2.8612901258    0.5582653778
H        0.8600456789   -3.8346726888   -0.7725360606
H       -0.8341963336   -3.3246458972   -0.7870611045
H       -4.7626787689    3.8107697715    4.7091672435
H       -3.4201661744    4.3411595294    3.6405291215
H       -3.1064381538    3.1498418970    4.9235305526
H        0.5724470711   -1.9068252206   -2.3509149909
H        1.5956815257   -1.4380199405   -0.9942063159
H        1.2862809667    0.9197183382    1.5224236741
H        0.8631552988   -0.6344865237    1.7611423260
29   
torsion grid (60,)
C       -2.5402705136    0.1122644844    1.1048763259
C       -3.5518745927    0.6406338074    1.8756367523
C       -1.3013581277    0.7896420459    1.0650094926
C       -3.2552491338    1.8304198794    2.5718773182
C        0.1899083681    0.9175781719   -1.0510519850
C       -0.3237706852   -0.5035054575   -0.9851912624
C       -0.1093822177    0.2862332196    0.2942823055
C        0.0727729265   -2.9825261078   -0.6631972920
C       -3.9237467908    3.5795706279    4.0390753250
C        0.5562677458   -1.6873593960   -1.3286808958
N       -1.0935332494    1.9064217883    1.7667493071
N       -2.0690185593    2.4294179112    2.5218971051
N        1.0631758260   -0.0440383708    1.0860141278
O       -4.2389117957    2.3678512482    3.3280806767
H       -2.6814213162   -0.8085757520    0.5473336066
H       -4.5326690250    0.1840205902    1.9669720398
H        1.2422473691    1.0601869363   -1.2794463120
H       -0.4747239487    1.6976173531   -1.4098011956
H       -1.3643653065   -0.6235978863   -1.2835488724
H        0.0855305258   -2.8895455555    0.4286634837
H        0.7092840147   -3.8321531298   -0.9328835557
H       -0.9530672672   -3.2274513729   -0.9642824694
H       -4.8380913392    3.8387506265    4.5737530402
H       -3.6441201226    4.3752330744    3.3438759599
H       -3.1005093936    3.4152164535    4.7390305772
H        0.5717173338   -1.8144962101   -2.4188036912
H        1.5811406739   -1.4724786960   -1.0148106307
H        1.3485565477    0.7948786275    1.5915442299
H        0.8152300832   -0.7358778867    1.7932360291
29   
torsion grid (75,)
C       -2.4117111484    0.0017234263    1.3356021947
C       -3.4264933051    0.5125111766    2.1126005940
C       -1.2604548536    0.7944608193    1.1259241545
C       -3.2197072193    1.8044640594    2.6410252084
C        0.2706292850    0.9670078117   -0.9581580077
C       -0.3233596424   -0.4257384552   -0.9709966958
C       -0.0768531000    0.2889497106    0.3465947795
C       -0.0641101726   -2.9356465422   -0.7715764131
C       -3.9894112870    3.6447036588    3.9371994118
C        0.4923971764   -1.6372750728   -1.3706517086
N       -1.1363107284    2.0083676614    1.6650794205
N       -2.1174962908    2.5160147123    2.4263125048
N        1.0597700842   -0.1518795643    1.1388914143
O       -4.2072986299    2.3251222329    3.4036616849
H       -2.4820119511   -0.9858650695    0.8883155012
H       -4.3458026686   -0.0246403984    2.3251791064
H        1.3306989185    1.0583976753   -1.1766892756
H       -0.3436582211    1.8031613775   -1.2771652545
H       -1.3698356456   -0.4719348943   -1.2716291315
H       -0.0488937728   -2.8987557845    0.3237737637
H        0.5250262797   -3.8049276105   -1.0831127478
H       -1.1009787701   -3.1075770164   -1.0851783741
H       -4.8905953934    3.8702974615    4.5082177582
H       -3.8507157349    4.3701602219    3.1315859021
H       -3.1083204898    3.6606625077    4.5837301137
H        0.5069823262   -1.7116633972   -2.4656525425
H        1.5260825425   -1.4950905366   -1.0441234966
H        1.4031829696    0.6425714683    1.6788956068
H        0.7619100460   -0.8571086482    1.8126949933
29   
torsion grid (90,)
C       -2.2962040431   -0.0473766543    1.5728132844
C       -3.3145398874    0.4571060416    2.3469753771
C       -1.2437054109    0.8194117819    1.1942515537
C       -3.2136385274    1.8209353721    2.6997967985
C        0.3293966666    1.0240992256   -0.8547327718
C       -0.3364712061   -0.3335830474   -0.9431370112
C       -0.0679266331    0.3060004876    0.4099342612
C       -0.2007550099   -2.8594911430   -0.8499688989
C       -4.1005062606    3.7278524854    3.8109492144
C        0.4207070154   -1.5655975652   -1.3922665319
N       -1.2220850557    2.1003944145    1.5610878705
N       -2.2109633702    2.6042309436    2.3187638350
N        1.0282429358   -0.2401736554    1.1951965335
O       -4.2047292610    2.3345503713    3.4625436386
H       -2.2915679916   -1.0832810730    1.2434420955
H       -4.1639550484   -0.1323708791    2.6784178283
H        1.3946245396    1.0679062722   -1.0624779286
H       -0.2350148789    1.9081930551   -1.1325552716
H       -1.3826478066   -0.3126612179   -1.2482539996
H       -0.1795486642   -2.8734436780    0.2459373064
H        0.3415822147   -3.7432267687   -1.2031514575
H       -1.2460631766   -2.9627527160   -1.1653372135
H       -4.9852900606    3.9347081233    4.4138168496
H       -4.0896459601    4.3515100406    2.9134885627
H       -3.1893964317    3.9166542581    4.3843505469
H        0.4352340073   -1.5941368257   -2.4894443375
H        1.4591233784   -1.4890101880   -1.0588093580
H        1.4225629435    0.5041640203    1.7704829898
H        0.6825165993   -0.9553979735    1.8345182327
29   
torsion grid (105,)
C       -2.1292472416   -0.1077559685    1.8023638679
C       -3.1515664367    0.3965531632    2.5685996537
C       -1.1888241125    0.7959861842    1.2485067131
C       -3.1719662332    1.8001470829    2.7365011431
C        0.4096031281    1.0417852854   -0.7750953690
C       -0.3183565692   -0.2753276792   -0.9410917546
C       -0.0268312756    0.2769869338    0.4478162874
C       -0.2966705842   -2.8077491407   -0.9809643156
C       -4.1921346285    3.7447258244    3.6496588856
C        0.3830037852   -1.5157412533   -1.4534915908
N       -1.2812707566    2.1095245205    1.4426356484
N       -2.2790357219    2.6156311145    2.1912787291
N        1.0354814128   -0.3686163087    1.2036325529
O       -4.1689945030    2.3135970880    3.4918089913
H       -2.0423438221   -1.1733093523    1.6038176779
H       -3.9201353762   -0.2202390852    3.0243230479
H        1.4766752987    1.0438802664   -0.9773499734
H       -0.1104497921    1.9660455648   -1.0019248393
H       -1.3620976023   -0.1899167255   -1.2428266004
H       -0.2749948729   -2.8833903207    0.1125315270
H        0.2047693993   -3.6944352653   -1.3837331691
H       -1.3459729670   -2.8454936634   -1.2969927528
H       -5.0594038357    3.9451022924    4.2795606557
H       -4.2954977976    4.2392308381    2.6804750788
H       -3.2756572109    4.0961068787    4.1304230614
H        0.3981940257   -1.4866239191   -2.5507061944
H        1.4234703932   -1.5039357814   -1.1177602179
H        1.4602325136    0.3134809532    1.8315228013
H        0.6592805943   -1.1156572035    1.7864062258
29   
torsion grid (120,)
C       -1.9628220633   -0.1327429723    2.0394797652
C       -2.9927189023    0.3836095420    2.7860056499
C       -1.1376399837    0.7612240583    1.3110852300
C       -3.1409444026    1.7896587566    2.7598725816
C        0.4886602464    1.0328797436   -0.6867742189
C       -0.3046485909   -0.2318823316   -0.9253416096
C        0.0087686832    0.2289025270    0.4960704594
C       -0.4172803574   -2.7571951831   -1.1024605948
C       -4.2986660320    3.7460377900    3.4567990730
C        0.3321466155   -1.4790367704   -1.5015607226
N       -1.3479992987    2.0751173724    1.3293522202
N       -2.3565267240    2.5934959261    2.0560145942
N        1.0351791491   -0.5112696439    1.2109693822
O       -4.1473132938    2.3146664707    3.4949293710
H       -1.7900911755   -1.2049672050    1.9881258760
H       -3.6767050286   -0.2278991112    3.3665072184
H        1.5558899174    0.9875733808   -0.8824787629
H        0.0174534052    1.9928186987   -0.8637127348
H       -1.3419608865   -0.0756920229   -1.2198031476
H       -0.4081350592   -2.8932973850   -0.0146262551
H        0.0399723605   -3.6457132991   -1.5511535297
H       -1.4649902231   -2.7221259447   -1.4234289254
H       -5.1507537164    3.9571750027    4.1036924359
H       -4.4934333814    4.0874834184    2.4369534606
H       -3.3981553326    4.2405684045    3.8297452758
H        0.3532359620   -1.3908357701   -2.5956159511
H        1.3707228004   -1.5401598256   -1.1652932022
H        1.4818801042    0.0996208353    1.8938308999
H        0.6349902748   -1.2951744127    1.7240477302
29   
torsion grid (135,)
C       -1.7776005436   -0.1126425028    2.2877779512
C       -2.8113472241    0.4171063837    3.0199817461
C       -1.0852366689    0.7298687709    1.3811387611
C       -3.1001756948    1.7834271202    2.8024145280
C        0.5689468557    1.0340685135   -0.5898786745
C       -0.2829278715   -0.1709831393   -0.9032392945
C        0.0438897829    0.1876506722    0.5482477279
C       -0.5274619418   -2.6730003204   -1.2277164796
C       -4.4019194572    3.7121361425    3.2900816038
C        0.2908307722   -1.4150468176   -1.5482396049
N       -1.4227235028    2.0091769492    1.2300680972
N       -2.4365360149    2.5387704692    1.9391732027
N        1.0361139165   -0.6379107790    1.2116897366
O       -4.1118772618    2.3211165311    3.5214443099
H       -1.5050366205   -1.1594215358    2.3907227803
H       -3.3962198888   -0.1591317472    3.7303518415
H        1.6345761112    0.9435224050   -0.7778085029
H        0.1437683173    2.0228852842   -0.7136497179
H       -1.3105341167    0.0545733593   -1.1851085450
H       -0.5345027068   -2.8731326137   -0.1498505245
H       -0.1145728841   -3.5564109029   -1.7267082378
H       -1.5696080779   -2.5633494107   -1.5495618997
H       -5.2338478093    3.9419189069    3.9565876754
H       -4.6839364792    3.8806111977    2.2475967100
H       -3.5341406084    4.3331272637    3.5267324549
H        0.3227987679   -1.2638686931   -2.6351763745
H        1.3232273012   -1.5496969677   -1.2141982947
H        1.4939020478   -0.1058775716    1.9501093426
H        0.6191640780   -1.4624378644    1.6390414974
29   
torsion grid (150,)
C       -1.6041826213   -0.0395493978    2.5187514875
C       -2.6343019180    0.5160595106    3.2393770709
C       -1.0594290849    0.6947559122    1.4359726104
C       -3.0692255038    1.7962439345    2.8332634888
C        0.6426350322    1.0143470606   -0.4905716714
C       -0.2597738735   -0.1248271092   -0.8805084808
C        0.0550355662    0.1338103508    0.5973339702
C       -0.6343705260   -2.5870516881   -1.3543314194
C       -4.5151671753    3.6629884479    3.1122932014
C        0.2590135148   -1.3607869101   -1.5847674226
N       -1.5253418496    1.9038372951    1.1197453606
N       -2.5358338900    2.4541082670    1.8128993093
N        0.9985687431   -0.7700619194    1.2224852890
O       -4.0797974012    2.3581759168    3.5361796444
H       -1.2200162646   -1.0223869211    2.7742150559
H       -3.1074645936    0.0191158138    4.0807880216
H        1.7068752156    0.8794195592   -0.6582733000
H        0.2627831411    2.0260191186   -0.5696797049
H       -1.2706981665    0.1696383361   -1.1575616386
H       -0.6832969866   -2.8452376739   -0.2899823899
H       -0.2566204550   -3.4633348179   -1.8922047067
H       -1.6597456414   -2.4016986712   -1.6944574468
H       -5.3212322452    3.9283412910    3.7971686784
H       -4.8779553094    3.6345522572    2.0815499466
H       -3.6975456151    4.3852956667    3.1797353371
H        0.3220700236   -1.1492059628   -2.6602371108
H        1.2758508770   -1.5711517072   -1.2419260591
H        1.4450740521   -0.3247822370    2.0220051605
H        0.5534204278   -1.6263820674    1.5454295486
29   
torsion grid (165,)
C       -1.4401483853    0.0602859775    2.7062948405
C       -2.4621673004    0.6445861425    3.4185502026
C       -1.0429089544    0.6525914873    1.4831722922
C       -3.0372327196    1.8059882006    2.8626341293
C        0.7112760700    0.9772216692   -0.3908482537
C       -0.2367993726   -0.0897563942   -0.8574767123
C        0.0541841618    0.0686133692    0.6394737214
C       -0.7241688543   -2.4991220684   -1.4752460651
C       -4.6167746039    3.5798269382    2.9755334488
C        0.2355624499   -1.3104127655   -1.6183654647
N       -1.6371513628    1.7591526331    1.0286659269
N       -2.6365783673    2.3340869529    1.7127977843
N        0.9365012556   -0.9142209668    1.2290157088
O       -4.0420342873    2.3937206006    3.5534085222
H       -0.9510273300   -0.8344464731    3.0778341685
H       -2.8261000891    0.2529600205    4.3635394242
H        1.7721697702    0.8019259338   -0.5427650964
H        0.3766763664    2.0080270366   -0.4205453020
H       -1.2250944458    0.2733879773   -1.1328245398
H       -0.8119494148   -2.8110264675   -0.4280215894
H       -0.3780257093   -3.3634654161   -2.0523259126
H       -1.7301122079   -2.2425553534   -1.8267673539
H       -5.3926048120    3.8886704942    3.6769312072
H       -5.0474713289    3.3637865324    1.9943335393
H       -3.8618893937    4.3627868345    2.8657977230
H        0.3337550425   -1.0427494072   -2.6786058048
H        1.2321260897   -1.5923664448   -1.2674785567
H        1.4179543929   -0.5320134101    2.0406776790
H        0.4358126206   -1.7515449348    1.5191627079
29   
torsion grid (180,)
C       -0.8945788999    1.2334859365    2.4959436609
C       -1.9058748564    1.5720238929    3.3663175596
C       -1.2374546119    0.8554324024    1.1758733189
C       -3.2209266074    1.5137636089    2.8623014449
C       -0.4636342611    0.8427490963   -1.2899173436
C       -0.5966385595   -0.5921912312   -0.8707287940
C       -0.1980551915    0.4655396078    0.1638836977
C        0.4468172988   -2.8412316798   -0.3489501666
C       -5.5630260875    1.7781993738    3.1779799194
C        0.3897057061   -1.6508712349   -1.3154365237
N       -2.5123731996    0.8289391584    0.7760554126
N       -3.5039256710    1.1568892962    1.6150978536
N        1.1934050049    0.4803563344    0.5544093780
O       -4.2263089633    1.8426008558    3.7070470335
H        0.1413149333    1.2587097008    2.8181020046
H       -1.7272893102    1.8735306560    4.3939597384
H        0.4146412579    1.1204310896   -1.8658409776
H       -1.3712753009    1.4025801073   -1.4899399663
H       -1.6225435206   -0.9312301385   -0.7474758168
H        0.7791645583   -2.5241943792    0.6461686286
H        1.1422061805   -3.6098990761   -0.7033889555
H       -0.5383698514   -3.3075054950   -0.2339279649
H       -6.2089976487    2.0751686060    4.0048988785
H       -5.8011132810    0.7637179604    2.8476536382
H       -5.6792476068    2.4617466966    2.3328839872
H        0.0953674870   -2.0015742256   -2.3133579690
H        1.3831302608   -1.2047413282   -1.4135959550
H        1.5004397251    1.4195374409    0.7998168337
H        1.3686574567   -0.1325198538    1.3480134075
