14   
torsion grid (-165,)
C        1.1090050290   -0.4601811445   -0.5232987970
C        1.0850480932    1.7106602138   -1.8369761730
C        1.2796125712    0.1908693549   -1.8910996493
O        0.5393553967   -0.2257034569   -4.4643410429
O       -1.2998164950    0.0797246053   -2.7268781842
S        0.0188901770   -0.4218415368   -3.1125700718
Br      -0.0528633670   -2.7185656954   -2.7310335409
H        0.0945001117   -0.3116354389   -0.1430162490
H        1.3293718775   -1.5275813443   -0.5382361222
H        1.8052303267    0.0236616329    0.1695389084
H        0.1175056886    1.9612858182   -1.3975654025
H        1.1591761097    2.1737471647   -2.8241790180
H        1.8760809661    2.1284189642   -1.2064533700
H        2.2256699938   -0.0848055955   -2.3634317486
14   
torsion grid (-150,)
C        1.1794196322   -0.4880032629   -0.5519197178
C        1.0120857106    1.7229776926   -1.7835544911
C        1.2808996776    0.2197004998   -1.8971244371
O        0.7003580585   -0.4648745057   -4.4587700850
O       -1.2277713994    0.2746346039   -2.9652228202
S        0.0461877347   -0.4192350088   -3.1517437144
Br      -0.3806978730   -2.6224726388   -2.5197257231
H        0.1673293712   -0.4221297760   -0.1431470475
H        1.4689095603   -1.5372332459   -0.6097614222
H        1.8582975688    0.0175811115    0.1429881354
H        0.0413258431    1.9102603652   -1.3209028965
H        1.0415077035    2.2260934213   -2.7533112039
H        1.7952949033    2.1560986436   -1.1531915280
H        2.2310806261    0.0092547016   -2.3936212410
14   
torsion grid (-135,)
C        1.2367606933   -0.5197573567   -0.5754485521
C        0.9463988762    1.7290763563   -1.7301821851
C        1.2660567682    0.2433372202   -1.8923260852
O        0.8418906909   -0.7592232170   -4.3823942150
O       -1.1089626720    0.4347747796   -3.2592460728
S        0.0684259885   -0.4295422207   -3.1854391585
Br      -0.7330427009   -2.4482016249   -2.3315420600
H        0.2540960750   -0.4657276671   -0.1002473342
H        1.5126617649   -1.5680105950   -0.6952759629
H        1.9655030933   -0.0493269770    0.0934943764
H       -0.0363235892    1.8722942078   -1.2764618530
H        0.9696112320    2.2660359465   -2.6809911737
H        1.7061523915    2.1643284485   -1.0726077354
H        2.2152894926    0.0885716091   -2.4109534073
14   
torsion grid (-120,)
C        1.0425954709   -0.5204825639   -0.7524073690
C        0.9113126774    1.9058601007   -1.5587282068
C        1.1030006226    0.4389585639   -1.9315911362
O        0.6578741290   -0.5814702072   -4.4068496582
O       -1.0063752986    1.1493274524   -3.5535969092
S       -0.1097548492    0.0191171325   -3.3157357238
Br      -1.4638838759   -1.6866351452   -2.4769389734
H        0.0997433935   -0.4344330975   -0.2078848098
H        1.1802787067   -1.5593683794   -1.0573984954
H        1.8586039782   -0.2546320234   -0.0718116019
H       -0.0646091297    2.0749659795   -1.0969863621
H        1.0009350991    2.5657801493   -2.4231676870
H        1.6887158501    2.1724870865   -0.8349119747
H        2.0358604566    0.2936501004   -2.4838894932
14   
torsion grid (-105,)
C        1.1485608964   -0.5581911026   -0.7865612028
C        0.8092717088    1.8822079055   -1.5364482554
C        1.1060769427    0.4412108355   -1.9330604805
O        0.7040214619   -0.9416431208   -4.2238667469
O       -0.7891763562    1.0818818046   -3.8173002041
S       -0.0511979655   -0.0764851013   -3.3176596426
Br      -1.6157071875   -1.4713154254   -2.2958641354
H        0.2439733476   -0.5127427657   -0.1772788450
H        1.2865353104   -1.5823439866   -1.1402723813
H        2.0051352639   -0.3003391416   -0.1546694833
H       -0.1733516371    1.9720663859   -1.0647465486
H        0.8435333978    2.5560711268   -2.3933108983
H        1.5666012936    2.1965945776   -0.8104685041
H        2.0441539047    0.3879570939   -2.4961227289
14   
torsion grid (-90,)
C        1.1634058543   -0.5748430162   -0.8539158162
C        0.7313081052    1.8931416196   -1.4853264725
C        1.0719667498    0.4814671414   -1.9460417191
O        0.5774866918   -1.1132176389   -4.0698717024
O       -0.5937079537    1.1478343895   -4.0059473951
S       -0.0694929097   -0.0336693675   -3.3245997591
Br      -1.8508611831   -1.0285051562   -2.1994555110
H        0.2685011883   -0.5860517248   -0.2291721856
H        1.3215123140   -1.5734911441   -1.2680645028
H        2.0228821397   -0.3295893395   -0.2214202154
H       -0.2463892771    1.9269987141   -0.9952555265
H        0.7296813664    2.5997402590   -2.3160762044
H        1.4863213800    2.2059380359   -0.7565819684
H        2.0057532232    0.4911247178   -2.5217864860
14   
torsion grid (-75,)
C        1.4169913216   -0.7778668036   -0.7844755243
C        0.2469572692    1.4157398662   -1.4704293158
C        0.8455181792    0.0833334341   -1.9036152547
O        0.2721689089   -2.0580955795   -3.4549510805
O       -1.1234891319    0.0463145694   -3.7797390835
S       -0.3829014720   -0.8685266685   -2.9137335479
Br      -1.8709886826   -1.6242924131   -1.2874924915
H        0.6849515368   -0.9338908886    0.0104352487
H        1.7544363397   -1.7484418477   -1.1547476512
H        2.2790162847   -0.2539371440   -0.3593173821
H       -0.5728646999    1.2685134279   -0.7614460036
H       -0.1219070238    1.9881306684   -2.3229320945
H        1.0281293361    1.9959929417   -0.9688540452
H        1.6060009293    0.2415364443   -2.6787612691
14   
torsion grid (-60,)
C        1.1624836787   -0.5602059155   -1.0545539060
C        0.6275673755    1.9220080578   -1.4444549017
C        1.0447241348    0.5873202776   -2.0506057047
O        0.2172101835   -1.2363797877   -3.8843091953
O       -0.1865228020    1.2285539505   -4.3782528449
S       -0.0965127897    0.1176605431   -3.4325094457
Br      -2.1531931036    0.0065404318   -2.3423880245
H        0.2206972034   -0.7186369702   -0.5227089497
H        1.4553842458   -1.4913336899   -1.5430239348
H        1.9282926130   -0.2969809512   -0.3178616934
H       -0.2942343723    1.8226931989   -0.8670020770
H        0.4879882654    2.6880523325   -2.2100705003
H        1.4216492331    2.2521151590   -0.7671076583
H        1.9726721235    0.6989115945   -2.6249235272
14   
torsion grid (-45,)
C        1.2109090335   -0.7636512114   -0.7372782646
C        0.0634820817    1.4449673926   -1.3131061318
C        0.6517735494    0.1379219380   -1.8322573904
O       -0.2178702372   -2.2223883990   -2.8916744004
O       -0.8735168125   -0.0549473725   -4.0567667362
S       -0.5930741809   -0.8111630125   -2.8370119536
Br      -2.5248663064   -0.6700506738   -1.5398948880
H        0.4309519271   -1.0370158281   -0.0206217184
H        1.6490822736   -1.6764311124   -1.1435561646
H        1.9863058325   -0.2099566396   -0.1978961952
H       -0.6175770901    1.2689557923   -0.4793173864
H       -0.4640191329    1.9965216075   -2.0952191184
H        0.8902119309    2.0690671363   -0.9583110483
H        1.3958037268    0.3298899779   -2.6136474026
14   
torsion grid (-30,)
C        1.3470502710   -0.6679699642   -0.9064226049
C        0.1853454159    1.5576256455   -1.3291763548
C        0.8208599368    0.3175785952   -1.9447844246
O       -0.1419432168   -2.0245716865   -3.0019789565
O       -0.3065859533    0.1022664637   -4.3940114433
S       -0.3475393633   -0.5811023079   -3.1012273885
Br      -2.4706878747   -0.1479545710   -2.2400059273
H        0.5430678590   -1.0101400980   -0.2485951421
H        1.8135045951   -1.5404890613   -1.3656212839
H        2.0925779202   -0.1519538803   -0.2923986791
H       -0.5618606681    1.2923489620   -0.5800920447
H       -0.2770851790    2.2024983895   -2.0804328232
H        0.9802068066    2.1285152437   -0.8375188202
H        1.5934927047    0.5952571006   -2.6689730446
14   
torsion grid (-15,)
C        1.5327583990   -0.6485574096   -0.8266176316
C        0.0172545409    1.3562169241   -1.2387579625
C        0.8068715151    0.2110579937   -1.8571959458
O       -0.0532341758   -2.3137305196   -2.5448121013
O       -0.0704025480   -0.4913866690   -4.3254378569
S       -0.2480380043   -0.9192560821   -2.9376259371
Br      -2.4626705640   -0.4084785307   -2.4080585831
H        0.8288715072   -1.0975724764   -0.1212592560
H        2.1126930050   -1.4484669267   -1.2893208448
H        2.2155768069   -0.0005184723   -0.2669272622
H       -0.6831186073    0.9986042366   -0.4818090478
H       -0.5330314226    1.9325665952   -1.9854500699
H        0.7352998409    2.0272553389   -0.7551355531
H        1.4903465659    0.5853332916   -2.6246683409
14   
torsion grid (0,)
C        1.6104447654   -0.6226943976   -0.8791631777
C       -0.0464838031    1.2950770092   -1.1883937930
C        0.7866170835    0.2114967653   -1.8571599975
O       -0.2086329135   -2.3165902178   -2.3012959183
O        0.1583666645   -0.7867997897   -4.3062684834
S       -0.2277887288   -0.9868800391   -2.9093804701
Br      -2.4446483952   -0.2753289324   -2.7398756514
H        0.9703260248   -1.1281172441   -0.1526497561
H        2.2167745073   -1.3758349717   -1.3860094414
H        2.2812009288    0.0566211945   -0.3424995674
H       -0.7458739739    0.8764183030   -0.4610769603
H       -0.6047589085    1.8937393967   -1.9097718199
H        0.6440266625    1.9587558231   -0.6567318802
H        1.4155260047    0.6427442589   -2.6403291146
14   
torsion grid (15,)
C        0.4263076019    0.2363856059   -0.2077017412
C        1.9229042219    0.5752109449   -2.2563315066
C        1.2308073859   -0.4155149974   -1.3317495383
O       -1.3118847695   -1.0781085799   -2.1111640108
O        0.3886112618   -2.9526642403   -1.8118219590
S        0.0549577388   -1.5878113169   -2.2181698993
Br       0.5755666473   -1.4113598633   -4.4858486087
H       -0.3438316154    0.8996713088   -0.6067260583
H       -0.0524286992   -0.5020620214    0.4395134768
H        1.1200572102    0.8255172872    0.4010421700
H        1.2037911983    1.2109014940   -2.7796481397
H        2.5565889320    0.0798485287   -2.9923216085
H        2.5568209243    1.2180773659   -1.6360573787
H        1.9521084088   -1.1330462080   -0.9322894847
14   
torsion grid (30,)
C        0.4577041293    0.1673634533   -0.1787728116
C        1.9251538013    0.6079659281   -2.2347397701
C        1.2677211380   -0.4268700216   -1.3328624484
O       -1.1953132798   -0.8954555759   -2.3968355095
O        0.1949488986   -2.8960139402   -1.6484646459
S        0.0968101108   -1.5636470605   -2.2426131600
Br       0.9602912266   -1.7087255520   -4.4027409695
H       -0.3172499081    0.8415713567   -0.5492613909
H       -0.0109840455   -0.6056455987    0.4352740630
H        1.1459688260    0.7342468006    0.4562025762
H        1.1808415943    1.2195056977   -2.7528702624
H        2.5847176863    0.1526263613   -2.9729562262
H        2.5242890738    1.2700514979   -1.6005625358
H        2.0080774747   -1.1406065635   -0.9612930653
14   
torsion grid (45,)
C        0.4997781783    0.1108707621   -0.1495120193
C        1.8530854488    0.6754009577   -2.2536850122
C        1.2634629690   -0.4142694937   -1.3685896797
O       -1.1160874538   -0.7062985459   -2.6397543846
O       -0.0570102270   -2.7673313707   -1.5791141698
S        0.0646560524   -1.4941092676   -2.2866975957
Br       1.1593205043   -1.9332906273   -4.2950783575
H       -0.3012892186    0.7894996254   -0.4513700582
H        0.0758915856   -0.7001017287    0.4474659688
H        1.2066725747    0.6625145728    0.4780160604
H        1.0672940716    1.3008103422   -2.6870562100
H        2.4661988163    0.2678212168   -3.0572440202
H        2.4867922272    1.3120244735   -1.6275290792
H        2.0304187495   -1.1334957800   -1.0671773039
14   
torsion grid (60,)
C        0.5275810529    0.0491064011   -0.1307031146
C        1.7882097553    0.7092419554   -2.2617379465
C        1.2585915044   -0.4226079026   -1.3911726637
O       -0.9838430406   -0.6099438498   -2.9107237671
O       -0.2949860029   -2.6375085058   -1.5311923858
S        0.0515569498   -1.4646855989   -2.3313060004
Br       1.3660534239   -2.2261819693   -4.0969379191
H       -0.3059576490    0.7096993907   -0.3831847659
H        0.1550344575   -0.7894927051    0.4612332837
H        1.2387950716    0.6135871248    0.4804143268
H        0.9765456771    1.3670005180   -2.5831615148
H        2.3148990348    0.3387724369   -3.1425948110
H        2.4934928748    1.2969529135   -1.6653490651
H        2.0458101968   -1.1394354765   -1.1411596683
14   
torsion grid (75,)
C        0.5864986420    0.0295604428   -0.1196536957
C        1.5459428582    1.3216994296   -2.1080419700
C        1.0858412817   -0.0256855045   -1.5665257421
O       -1.1939829322    0.4453575151   -2.9840545850
O       -0.8590576724   -1.8756189143   -1.9934428030
S       -0.3183011008   -0.6598191306   -2.5980734064
Br       0.8440240788   -1.3428762158   -4.4990685632
H       -0.2286734997    0.7502298226   -0.0094207721
H        0.2494135220   -0.9470379102    0.2322016131
H        1.4179876474    0.3599359336    0.5110932793
H        0.7520020950    2.0667846461   -2.0228953852
H        1.8587659803    1.2581019586   -3.1530463702
H        2.4050941995    1.6543490668   -1.5168224980
H        1.8481415898   -0.7989444776   -1.6876181733
14   
torsion grid (90,)
C        0.6399255092   -0.0470999432   -0.1543399486
C        1.4987722971    1.4061908221   -2.0728702409
C        1.1029964162    0.0088057697   -1.6114705974
O       -1.0269147247    0.5284127306   -3.2580783084
O       -1.0211652232   -1.6695868007   -1.9775219168
S       -0.3061041109   -0.6005907164   -2.6724564153
Br       0.8966791299   -1.6451334105   -4.3756569566
H       -0.1991983843    0.6312518596    0.0244894888
H        0.3465555364   -1.0553746843    0.1414896337
H        1.4754618712    0.2755463663    0.4754157433
H        0.6820986919    2.1150102283   -1.9225812757
H        1.7849289680    1.4232993254   -3.1275814186
H        2.3610997207    1.7303875419   -1.4813519507
H        1.8907367709   -0.7233424907   -1.7981890128
14   
torsion grid (105,)
C        0.6825245420   -0.0797826603   -0.1239427550
C        1.4344574614    1.4450098863   -2.0368329680
C        1.0837914444    0.0291176014   -1.5938149245
O       -0.8836893936    0.4891013182   -3.4668913067
O       -1.2407959653   -1.4211950059   -1.8276941714
S       -0.3512005223   -0.5924188104   -2.6397305742
Br       0.7745855392   -2.0648698663   -4.0580003034
H       -0.1533889673    0.5836942426    0.1134181512
H        0.4065418738   -1.0989563207    0.1502263288
H        1.5431277934    0.2253324091    0.4806101169
H        0.6114103058    2.1365294650   -1.8442261445
H        1.6847470419    1.4930373749   -3.0988130209
H        2.3077398218    1.7719527059   -1.4626830797
H        1.8839327020   -0.6738722629   -1.8299656366
14   
torsion grid (120,)
C        0.7338206069   -0.1520713423   -0.1562100709
C        1.3804817920    1.5154607919   -2.0032876926
C        1.0850908461    0.0677319293   -1.6234932122
O       -0.6716425920    0.4310273248   -3.7174740906
O       -1.3924877203   -1.1237778601   -1.8396937651
S       -0.3458499082   -0.5518270791   -2.6852309931
Br       0.6828463852   -2.3377775412   -3.7811769302
H       -0.1218230824    0.4558785287    0.1471835294
H        0.5071684556   -1.1982057820    0.0571070935
H        1.6004200809    0.1444720510    0.4441838696
H        0.5438142456    2.1743925294   -1.7579288868
H        1.6040713791    1.6213955193   -3.0660199661
H        2.2547719422    1.8403086778   -1.4292219468
H        1.9078206398   -0.5825058877   -1.9246113910
14   
torsion grid (135,)
C        0.7913832476   -0.2229379477   -0.1957825141
C        1.3271868147    1.5795171046   -1.9647264789
C        1.0926555260    0.1032224489   -1.6524917948
O       -0.4427239401    0.3235967699   -3.9153278883
O       -1.4881049948   -0.8182767189   -1.8973755290
S       -0.3203706671   -0.5123377312   -2.7221281359
Br       0.5741876646   -2.5389071281   -3.4580575021
H       -0.0826827828    0.3246528790    0.1634645562
H        0.6163395965   -1.2908332965   -0.0467657920
H        1.6595440392    0.0690666201    0.4042788135
H        0.4759373832    2.1973216980   -1.6650434948
H        1.5205500661    1.7419502106   -3.0258031578
H        2.2024120667    1.9060831447   -1.3932693510
H        1.9353267867   -0.4889185868   -2.0147517798
14   
torsion grid (150,)
C        0.8258058495   -0.2842463734   -0.2401230819
C        1.2589802426    1.6352262799   -1.9098716093
C        1.0801880320    0.1343203208   -1.6814038966
O       -0.2794131698    0.2342410296   -4.0422459075
O       -1.5694891618   -0.4923249633   -1.9721833186
S       -0.3315806300   -0.4441018943   -2.7485028544
Br       0.3456108407   -2.6396318933   -3.1504836542
H       -0.0582388106    0.2123118612    0.1657213232
H        0.6920101712   -1.3651686741   -0.1508077486
H        1.6966285342    0.0013376919    0.3587413226
H        0.3903997036    2.2024018440   -1.5624326577
H        1.4330476023    1.8642165169   -2.9621736593
H        2.1288388759    1.9609229890   -1.3301815775
H        1.9283852876   -0.4094823158   -2.1042076499
14   
torsion grid (165,)
C        0.8730415420   -0.3282575666   -0.2564953052
C        1.1942211770    1.6337288087   -1.8784046382
C        1.0945776596    0.1169714309   -1.6957423907
O       -0.1058758539    0.0087084284   -4.1283234380
O       -1.5763888855   -0.2550840922   -2.0663979431
S       -0.3063468115   -0.4637021477   -2.7598766216
Br       0.1065181242   -2.7572347321   -2.7932130803
H       -0.0246373886    0.1329398761    0.1618666948
H        0.7834998524   -1.4136024817   -0.1736349563
H        1.7370192223   -0.0128540073    0.3372345773
H        0.2999753225    2.1385732344   -1.5025767718
H        1.3462079273    1.9064313896   -2.9243630876
H        2.0527244272    1.9867643491   -1.2982103763
H        1.9578651675   -0.3822893822   -2.1436328520
14   
torsion grid (180,)
C        0.9412049610   -0.3775267170   -0.3412104644
C        1.1216651520    1.6908283548   -1.8188455494
C        1.1207951368    0.1596082831   -1.7558421507
O        0.0578950757   -0.0655297748   -4.2374675003
O       -1.5419907591    0.0126825096   -2.2565866553
S       -0.2680239180   -0.3907862585   -2.8504398599
Br      -0.1473461422   -2.7085121832   -2.6569135037
H       -0.0042329649   -0.0352253218    0.0875676618
H        0.9736319771   -1.4673421094   -0.3048462328
H        1.7586248499    0.0087075706    0.2761903178
H        0.2089102873    2.1003764326   -1.3792757250
H        1.2239509368    2.0586578076   -2.8422579918
H        1.9759451897    2.0519559556   -1.2378214451
H        2.0009840222   -0.2633591718   -2.2472914463
