17   
torsion grid (-165,)
C        0.0445012128    0.8843667323    2.7240308752
C       -2.7611172879    1.3826919905   -0.6541749855
C       -3.0441622183   -0.0603624869   -0.1857031894
C       -1.4831977653    1.8748816612    0.0430147110
C       -1.7229347717   -0.8244811790   -0.2860159592
N        0.4933228500    1.6397135005    3.5003871022
N       -0.5245493356   -0.0056503055    1.9024503576
O        0.7642619638    0.3704867774   -0.4202251420
S       -0.4923756616    0.3460955398    0.3534059953
H       -2.6132434948    1.3926543168   -1.7387673350
H       -3.5996705632    2.0462406692   -0.4289452430
H       -3.3915436966   -0.0660710298    0.8515230741
H       -3.8113810628   -0.5360914368   -0.8020786071
H       -0.8679763622    2.5411285507   -0.5619845272
H       -1.6699716538    2.3219227873    1.0213402990
H       -1.6579810040   -1.7263842587    0.3222191976
H       -1.4302254106   -1.0311969562   -1.3185283790
17   
torsion grid (-150,)
C       -0.0863722417    0.9578709741    2.6806014613
C       -2.7312230663    1.4187604023   -0.5959490546
C       -3.0048045239   -0.0291254188   -0.1381561847
C       -1.4121156431    1.8845096853    0.0410734251
C       -1.6991535044   -0.8022174966   -0.3260726865
N        0.1426202256    1.8008709063    3.4635075606
N       -0.4081353769   -0.0286739680    1.8393426532
O        0.8000281446    0.3441805939   -0.5185475549
S       -0.4325036213    0.3400697044    0.2928338622
H       -2.6415802653    1.4465141394   -1.6865019620
H       -3.5481379578    2.0872221378   -0.3134544409
H       -3.2940311880   -0.0506503593    0.9166128973
H       -3.8098117788   -0.4865976392   -0.7189153325
H       -0.8134187073    2.5412911990   -0.5903667104
H       -1.5420027203    2.3345000390    1.0277000263
H       -1.6152645026   -1.7226066814    0.2520331878
H       -1.4595048706   -0.9821064957   -1.3772275676
17   
torsion grid (-135,)
C       -0.2090633761    0.9573903480    2.6579380940
C       -2.7121508091    1.4211775305   -0.5588901817
C       -2.9822177157   -0.0222399183   -0.0866403833
C       -1.3651967842    1.8715709691    0.0280322481
C       -1.6956449133   -0.8086331039   -0.3347596024
N       -0.1919977986    1.8127314910    3.4614253887
N       -0.2769807299   -0.0476016337    1.7865751067
O        0.8070921872    0.2871442621   -0.6139330375
S       -0.3919687413    0.3173821754    0.2441272138
H       -2.6653789995    1.4456991157   -1.6521538566
H       -3.5090951991    2.0995154439   -0.2447724114
H       -3.2243765943   -0.0384820804    0.9803389812
H       -3.8182751760   -0.4717050678   -0.6282832465
H       -0.7779436274    2.5170233395   -0.6255896580
H       -1.4563881810    2.3273386619    1.0165461092
H       -1.5982749224   -1.7338572641    0.2338335993
H       -1.5034352230   -0.9849541376   -1.3963233599
17   
torsion grid (-120,)
C       -0.5076041224    1.0185164895    2.7446568661
C       -2.7364247924    1.4331009957   -0.4596432434
C       -2.9898133840   -0.0032465202    0.0463537337
C       -1.3474311181    1.8839252344    0.0246358800
C       -1.7158408831   -0.7960411605   -0.2382297256
N       -0.7304543222    1.8591595235    3.5337864487
N       -0.2876201686    0.0300742379    1.8847412396
O        0.8173756433    0.2221476497   -0.4914229967
S       -0.4021323766    0.3275530237    0.3276268277
H       -2.7655726483    1.4436956223   -1.5534281029
H       -3.5051052118    2.1202808713   -0.0987982815
H       -3.1930693924   -0.0030042870    1.1215461063
H       -3.8471722002   -0.4575737707   -0.4562965496
H       -0.7705789094    2.4450539929   -0.7112354064
H       -1.3759785158    2.4291343960    0.9703912689
H       -1.6083493648   -1.7238498260    0.3247772457
H       -1.5497619894   -0.9695086151   -1.3049866302
17   
torsion grid (-105,)
C       -0.6052970060    0.9657572683    2.7085432263
C       -2.7177690906    1.4448874631   -0.4378076487
C       -2.9618150436    0.0154755434    0.0937253554
C       -1.3076832020    1.8905370981   -0.0133878459
C       -1.7048359305   -0.7894445031   -0.2315675870
N       -1.0137402227    1.7292640454    3.5024295152
N       -0.1532276137    0.0703151138    1.8392476502
O        0.8276563132    0.1864320849   -0.5639719141
S       -0.3644298204    0.3316957422    0.2858124295
H       -2.7896820906    1.4433489990   -1.5296121028
H       -3.4666118508    2.1412272133   -0.0538013200
H       -3.1249840196    0.0311768052    1.1758387797
H       -3.8424047027   -0.4363575319   -0.3692907156
H       -0.7497147656    2.4280266659   -0.7810291060
H       -1.2993515211    2.4551141145    0.9208811993
H       -1.5822924493   -1.7140711760    0.3337450416
H       -1.5788187069   -0.9706595136   -1.3025485267
17   
torsion grid (-90,)
C       -0.6708967465    0.9159592163    2.7096029554
C       -2.6531383771    1.4371128787   -0.4530778485
C       -2.9264285811    0.0394416281    0.1449566200
C       -1.2401219282    1.8767407172   -0.0359874698
C       -1.6848302338   -0.8059956000   -0.1366029927
N       -1.2465811974    1.5878495691    3.4826177367
N       -0.0126446235    0.1366364057    1.8585303039
O        0.8518232558    0.1115246502   -0.5661697022
S       -0.3125912526    0.3164203108    0.3069456400
H       -2.7172238792    1.3859527896   -1.5442109111
H       -3.3919951339    2.1633792783   -0.1068768952
H       -3.0946684122    0.1133469106    1.2237883162
H       -3.8142371526   -0.4165948295   -0.3001164179
H       -0.6714549840    2.3869450150   -0.8145202157
H       -1.2311029067    2.4644182922    0.8836771603
H       -1.5769276042   -1.6994996484    0.4795620519
H       -1.5673564975   -1.0510314452   -1.1957842972
17   
torsion grid (-75,)
C       -0.6480918426    0.7845022849    2.7211541257
C       -2.6820482685    1.4628242352   -0.5052628246
C       -2.9958708543    0.0982708603    0.1439016750
C       -1.3215043770    1.9278557433    0.0256514825
C       -1.7481533428   -0.7691899002   -0.0304262897
N       -1.3312286670    1.2656700445    3.5471199999
N        0.1403485221    0.2336328096    1.8009085445
O        0.7208989915    0.1915716160   -0.6923647389
S       -0.3511985234    0.3795271708    0.2942417520
H       -2.6418762384    1.3549659815   -1.5939396483
H       -3.4526974453    2.2009262799   -0.2698415710
H       -3.2175403287    0.2292281443    1.2073607391
H       -3.8622799263   -0.3754518584   -0.3247695884
H       -0.7324334784    2.5275772046   -0.6695469724
H       -1.3981410723    2.4299565430    0.9923024384
H       -1.6529340975   -1.5961869224    0.6742612057
H       -1.6157180859   -1.1223124443   -1.0562469009
17   
torsion grid (-60,)
C       -0.5765076092    0.6448036435    2.6869550366
C       -2.6528076604    1.4674008271   -0.5666247024
C       -2.9962887457    0.1360636888    0.1340865613
C       -1.3235885311    1.9529070795    0.0146277900
C       -1.7458218977   -0.7441011044    0.0683010049
N       -1.3384798781    0.9140035681    3.5398759482
N        0.2941857762    0.3405212107    1.7237932997
O        0.6647160706    0.2286213280   -0.8055181623
S       -0.3282482484    0.4205498422    0.2593592292
H       -2.5561671440    1.3113155432   -1.6460700971
H       -3.4343272593    2.2142039629   -0.4052104269
H       -3.2645528514    0.3219402174    1.1780217176
H       -3.8405888627   -0.3615251178   -0.3501759467
H       -0.7313598686    2.5935449996   -0.6402785975
H       -1.4436991808    2.4150173601    0.9973509973
H       -1.6653116930   -1.4881069759    0.8619195342
H       -1.6011929927   -1.2119574516   -0.9084889349
17   
torsion grid (-45,)
C       -0.6447533144    0.5348855031    2.7499323834
C       -2.6421872150    1.4621304245   -0.5876167539
C       -3.0056080888    0.1671050246    0.1695017518
C       -1.3308337244    1.9750488634    0.0071284239
C       -1.7545345426   -0.7125960197    0.1989674719
N       -1.4684807177    0.5850930655    3.5864430460
N        0.2888755842    0.4800683098    1.7986317612
O        0.6640190781    0.2372550999   -0.7254687212
S       -0.3325524869    0.4597730823    0.3295250611
H       -2.5160623732    1.2553195164   -1.6553851795
H       -3.4281902249    2.2145456619   -0.4835038190
H       -3.3113694440    0.4046773663    1.1922507059
H       -3.8296132802   -0.3600076537   -0.3185443392
H       -0.7288620449    2.6020692619   -0.6521266068
H       -1.4757375677    2.4642612547    0.9734392090
H       -1.6987453034   -1.3974300051    1.0462871546
H       -1.5822782032   -1.2507140315   -0.7364177968
17   
torsion grid (-30,)
C       -0.6436115657    0.4696265415    2.8266706777
C       -2.6248680892    1.5213136588   -0.5882104295
C       -2.9892837054    0.2624633351    0.2256954612
C       -1.3092317002    2.0546725255   -0.0207072755
C       -1.7412508363   -0.6185665258    0.2834540531
N       -1.4365629757    0.2974374879    3.6764599771
N        0.2613296769    0.6682358278    1.8693058708
O        0.7016733761    0.3052780181   -0.6352174830
S       -0.3193411207    0.5555509605    0.3909050399
H       -2.5022533797    1.2656906578   -1.6457461814
H       -3.4078085490    2.2807081907   -0.5169449912
H       -3.2883847075    0.5403320456    1.2405785071
H       -3.8176858714   -0.2835966047   -0.2332475351
H       -0.7068406356    2.6455653786   -0.7120490974
H       -1.4495129718    2.5947498476    0.9186065001
H       -1.6969147306   -1.2867734713    1.1445149282
H       -1.5619151728   -1.1735402183   -0.6407581745
17   
torsion grid (-15,)
C       -0.6848384317    0.3509716197    2.8698725071
C       -2.6557258418    1.4898360282   -0.6091402122
C       -3.0006268159    0.2638384082    0.2608985166
C       -1.3200558133    2.0438427039   -0.1076866908
C       -1.7535284968   -0.6169733509    0.3059976986
N       -1.4079381695   -0.0158784768    3.7201977118
N        0.1422160175    0.7786167712    1.9199862889
O        0.7274160665    0.2875189254   -0.5443840026
S       -0.3461129561    0.5682174922    0.4199266222
H       -2.5660236364    1.1892451625   -1.6580708985
H       -3.4342819273    2.2545076715   -0.5475710725
H       -3.2682649158    0.5736562334    1.2757037573
H       -3.8444560060   -0.2951822914   -0.1520699169
H       -0.7241860257    2.5640500792   -0.8587245767
H       -1.4292033749    2.6627619833    0.7850689363
H       -1.7046289263   -1.2965124308    1.1578068570
H       -1.5747045828   -1.1566448362   -0.6275291756
17   
torsion grid (0,)
C       -0.6744491486    0.3379877804    2.9019882965
C       -2.6125418871    1.5964205620   -0.5995145412
C       -2.9200384080    0.3598230880    0.2709553721
C       -1.2539362307    2.1612466719   -0.1635017822
C       -1.6582776541   -0.5007856548    0.2780033827
N       -1.3052205688   -0.2120083444    3.7264293348
N        0.0378974890    0.9894015067    1.9889488308
O        0.8575637660    0.4422951682   -0.4144450351
S       -0.2947020350    0.7159171462    0.4590328965
H       -2.5692181578    1.3011851319   -1.6526068654
H       -3.3910332167    2.3568863308   -0.5001486819
H       -3.1714788762    0.6536514548    1.2946728112
H       -3.7642190572   -0.2074808960   -0.1294926244
H       -0.6705089551    2.6089375780   -0.9688964724
H       -1.3265893409    2.8495253450    0.6797133998
H       -1.5968928478   -1.2175883721    1.0980072327
H       -1.4675052683   -0.9923403063   -0.6794463072
17   
torsion grid (15,)
C       -0.2837764674    0.3110438235    2.5672812577
C       -2.8581534499    1.3337178910   -0.7002274610
C       -2.7246023282   -0.0115584363    0.0449088668
C       -1.6922916727    2.2417484186   -0.2773218770
C       -1.2674362754   -0.4504441658   -0.0929840606
N       -0.4817059721   -0.5647534457    3.3243468901
N       -0.0870368365    1.3336365468    1.7410112510
O        0.8217155293    1.2500783568   -0.7174378849
S       -0.3305085836    1.0993121039    0.1880908156
H       -2.8128059730    1.1567801459   -1.7793496424
H       -3.8141330312    1.8167982553   -0.4840526353
H       -2.9780474742    0.1001101972    1.1035953377
H       -3.3915889185   -0.7667908677   -0.3786580452
H       -1.3141977973    2.8865404317   -1.0715206178
H       -1.9025251786    2.8257950043    0.6191029477
H       -0.9401254198   -1.1922402525    0.6370080063
H       -1.0052258845   -0.7643057107   -1.1064693373
17   
torsion grid (30,)
C       -0.1767361827    0.2905174438    2.5947650340
C       -2.8500033121    1.3482864139   -0.7345843118
C       -2.7498109639    0.0046998831    0.0189273195
C       -1.6933767174    2.2536615505   -0.2759418083
C       -1.2905059435   -0.4434154607   -0.0673580605
N       -0.1808061536   -0.6229051333    3.3321741630
N       -0.2196828006    1.3575293538    1.7988479652
O        0.8259507957    1.2201247818   -0.6305119145
S       -0.3622723486    1.1049460785    0.2357980466
H       -2.7678974936    1.1675382182   -1.8108928709
H       -3.8097632076    1.8382785732   -0.5537953700
H       -3.0381722027    0.1252422230    1.0675365188
H       -3.4082942851   -0.7470885049   -0.4234613703
H       -1.2856808406    2.8894942079   -1.0626804617
H       -1.9292625576    2.8443578506    0.6092253922
H       -0.9885962665   -1.1779440858    0.6811870636
H       -0.9978905906   -0.7705691801   -1.0679293671
17   
torsion grid (45,)
C       -0.0473179616    0.2969999591    2.5895541116
C       -2.8633602610    1.3524575741   -0.7891192525
C       -2.8068112309    0.0106786676   -0.0283335574
C       -1.7173329028    2.2462332851   -0.2831518237
C       -1.3504719450   -0.4553988775   -0.0633913930
N        0.1611121659   -0.6057747729    3.3094166925
N       -0.3446312029    1.3487735389    1.8218350574
O        0.7991656219    1.1608278158   -0.5838042282
S       -0.4135313047    1.0850494456    0.2540577727
H       -2.7378003594    1.1684219776   -1.8607453489
H       -3.8241443308    1.8537422444   -0.6497183402
H       -3.1287995515    0.1425136654    1.0089196270
H       -3.4600528070   -0.7341746122   -0.4897826692
H       -1.2805627287    2.8874738827   -1.0496956964
H       -1.9777588247    2.8280361379    0.6008049076
H       -1.0770832775   -1.1815738983    0.7045041017
H       -1.0338642915   -0.8037644005   -1.0492999772
17   
torsion grid (60,)
C        0.0792025198    0.3303872158    2.6223212360
C       -2.8558629903    1.3668057323   -0.8226453172
C       -2.8458834164    0.0159894525   -0.0760737286
C       -1.7159560956    2.2346116821   -0.2626820811
C       -1.3964066639   -0.4705374013   -0.0669570632
N        0.4944308544   -0.5020762320    3.3363118598
N       -0.4549191545    1.3021226085    1.8724324183
O        0.8010507809    1.1020942147   -0.4886300110
S       -0.4445965362    1.0518519493    0.3017430537
H       -2.6966517143    1.1943157428   -1.8917296480
H       -3.8132174421    1.8810162988   -0.7091472756
H       -3.2015979114    0.1437467684    0.9505525214
H       -3.4937352204   -0.7141030809   -0.5678900533
H       -1.2414202539    2.8807308564   -1.0022464663
H       -1.9986659927    2.8071892696    0.6204098456
H       -1.1569279616   -1.2067162172    0.7029034827
H       -1.0551903495   -0.8186547886   -1.0448839411
17   
torsion grid (75,)
C        0.2204273513    0.3975049628    2.6633721260
C       -2.8367510704    1.3823390801   -0.8551496838
C       -2.8788426216    0.0180779506   -0.1353642818
C       -1.7053260483    2.2122310835   -0.2291080213
C       -1.4403528770   -0.4958094091   -0.0919481703
N        0.8231063926   -0.3003873928    3.3871506344
N       -0.5246748672    1.2216204159    1.9152567390
O        0.8035514242    1.0312105922   -0.4110753990
S       -0.4646041176    0.9981504586    0.3430979551
H       -2.6392600708    1.2287532232   -1.9207814793
H       -3.7883409755    1.9120779597   -0.7671900373
H       -3.2630486817    0.1358262131    0.8822625613
H       -3.5257323578   -0.6896323444   -0.6601222102
H       -1.1932067202    2.8745563841   -0.9282846719
H       -2.0104230492    2.7605442866    0.6618936293
H       -1.2385640572   -1.2534934963    0.6674209282
H       -1.0775819342   -0.8295486194   -1.0673423480
17   
torsion grid (90,)
C        0.2682502943    0.4598602524    2.7203922845
C       -2.9059373960    1.3713837650   -0.8698479110
C       -3.0227430791   -0.0008137649   -0.1751453155
C       -1.7960388837    2.1530748095   -0.1566146742
C       -1.6039941056   -0.5588581746   -0.0786904963
N        1.0266118514   -0.0613365841    3.4462470242
N       -0.6526375745    1.0883780498    1.9797013639
O        0.6856924944    0.9122578610   -0.3435358273
S       -0.5861319628    0.8982609427    0.4047210717
H       -2.6480727190    1.2301045281   -1.9244098583
H       -3.8469655550    1.9253316258   -0.8292826402
H       -3.4468754578    0.1158401571    0.8269210342
H       -3.6673114859   -0.6819572534   -0.7367593270
H       -1.2452383743    2.8468466117   -0.7933048140
H       -2.1355525107    2.6547969533    0.7494651407
H       -1.4565262725   -1.3277425715    0.6813035120
H       -1.2160212114   -0.8974326393   -1.0428293790
17   
torsion grid (105,)
C        0.4117801973    0.6298602614    2.7332365462
C       -2.8745484727    1.4611657189   -0.8906511100
C       -3.0510326228    0.0711622532   -0.2460940441
C       -1.8027454501    2.1956654155   -0.0814853523
C       -1.6501076606   -0.5174984348   -0.0895857793
N        1.2910643967    0.3104361051    3.4392922534
N       -0.6481149369    1.0259513163    2.0222703591
O        0.6568256567    0.9351375034   -0.3242990752
S       -0.6044006084    0.9083868720    0.4414260740
H       -2.5540836683    1.3506581950   -1.9317534676
H       -3.8088552347    2.0280292908   -0.8884981458
H       -3.5276149669    0.1676101787    0.7345544342
H       -3.6759944476   -0.5819311740   -0.8607778231
H       -1.2283605153    2.9361678985   -0.6401485605
H       -2.1864839994    2.6290745651    0.8424473433
H       -1.5540191727   -1.2925460109    0.6716580651
H       -1.2277385962   -0.8591837047   -1.0379951842
17   
torsion grid (120,)
C        0.4527441467    0.5643966214    2.8497220413
C       -2.8314525220    1.3969055147   -0.8358417932
C       -3.1050048455   -0.0034747128   -0.2498130664
C       -1.8075759397    2.0625104994    0.0837789197
C       -1.7431537928   -0.6527153616   -0.0026658706
N        1.3870924206    0.4269935217    3.5440608233
N       -0.6736145481    0.7343679598    2.1557596422
O        0.6009217521    0.7510586428   -0.2077308709
S       -0.6510355732    0.7208162888    0.5733738378
H       -2.4282822488    1.3075057563   -1.8500088931
H       -3.7439503501    1.9957591708   -0.8916844634
H       -3.6513517485    0.0868237696    0.6944801779
H       -3.7056984882   -0.6155264938   -0.9276291220
H       -1.1955228230    2.8365158763   -0.3818892866
H       -2.2465851446    2.4292501033    1.0125712203
H       -1.7289949168   -1.4228329392    0.7686068703
H       -1.2794387301   -1.0209955625   -0.9211108914
17   
torsion grid (135,)
C        0.5310482684    0.5990736760    2.8605905324
C       -2.7731478527    1.4428805303   -0.8051315647
C       -3.1197186366    0.0332158808   -0.2815519084
C       -1.7779215792    2.0429886550    0.1871452957
C       -1.7973504771   -0.6712863993    0.0320475409
N        1.4933372670    0.6376401525    3.5287791706
N       -0.6242196283    0.5402941356    2.1973996883
O        0.5697939979    0.6928714037   -0.2008022620
S       -0.6563439318    0.6500609833    0.6203654571
H       -2.3202814373    1.3763909782   -1.7998990924
H       -3.6638246168    2.0711560686   -0.8858752780
H       -3.7218900050    0.1136086570    0.6289506373
H       -3.6953540559   -0.5381098800   -1.0143120172
H       -1.1441930307    2.8384432792   -0.2078290653
H       -2.2493451570    2.3549472016    1.1208120452
H       -1.8490364862   -1.4264514282    0.8155813945
H       -1.3127227957   -1.0755037221   -0.8597713012
17   
torsion grid (150,)
C        0.5053086782    0.6900477135    2.8309765895
C       -2.7724226471    1.4155996391   -0.8030891092
C       -3.1071603152   -0.0037445054   -0.2979343404
C       -1.7503695863    2.0034183837    0.1710169014
C       -1.7788487047   -0.7138849929   -0.0239826284
N        1.4230579913    0.9337423822    3.5180706083
N       -0.5943656781    0.3757045847    2.1429073647
O        0.5877799255    0.6647453209   -0.2474766880
S       -0.6357054761    0.5889914159    0.5758849559
H       -2.3450287788    1.3668950356   -1.8100487970
H       -3.6654074551    2.0441180809   -0.8508757444
H       -3.6896682244    0.0584085062    0.6266528018
H       -3.6979993516   -0.5614071691   -1.0291350869
H       -1.1190326987    2.7933861915   -0.2380021327
H       -2.2002078795    2.3188445319    1.1142222090
H       -1.8153060492   -1.4886246786    0.7406795718
H       -1.3065447688   -1.0918550746   -0.9336927540
17   
torsion grid (165,)
C        0.3799390141    0.7964162576    2.8198314047
C       -2.7964662550    1.4137080237   -0.7673825955
C       -3.1107277813   -0.0140063031   -0.2736260499
C       -1.7139249495    1.9844872512    0.1534393139
C       -1.7709898317   -0.7331251850   -0.0948956830
N        1.1897197307    1.2354050755    3.5444609363
N       -0.5915418660    0.2493051705    2.0818900402
O        0.6121319984    0.6330468147   -0.2839754431
S       -0.6196146151    0.5408885691    0.5254003984
H       -2.4283812199    1.3804441202   -1.7981201524
H       -3.6868164938    2.0476788888   -0.7533074514
H       -3.6370578090    0.0275808543    0.6850597551
H       -3.7453808579   -0.5527874286   -0.9819498268
H       -1.0863788938    2.7552387541   -0.2951464355
H       -2.1120174544    2.3217514247    1.1122314048
H       -1.7715258537   -1.5474987796    0.6282153697
H       -1.3383317817   -1.0584291091   -1.0439011996
17   
torsion grid (180,)
C        0.1718389864    0.8336083497    2.7803388315
C       -2.8186409650    1.3997755916   -0.7126614282
C       -3.1116225245   -0.0345210184   -0.2241312170
C       -1.6130668332    1.9316700987    0.0745132016
C       -1.7756239322   -0.7799923843   -0.2111234971
N        0.8161953226    1.4381476931    3.5505088585
N       -0.6148974827    0.1034256244    1.9807677566
O        0.6733742913    0.4882971013   -0.3411853363
S       -0.5843626024    0.4347640506    0.4297993954
H       -2.5817462358    1.3832505661   -1.7814212329
H       -3.6842770539    2.0528207415   -0.5759756175
H       -3.5298603513   -0.0152144445    0.7867483154
H       -3.8287537946   -0.5397838201   -0.8762912435
H       -0.9850314779    2.6323124444   -0.4761538693
H       -1.8880409648    2.3486781676    1.0448872913
H       -1.7325723267   -1.6500347967    0.4430376102
H       -1.4221836947   -1.0305266220   -1.2143301861
