9
0 1 C2H3N3S
C                     3.164288453996    -0.389428208716     0.003632764509
H                     4.014774928384    -0.916502559110     0.426922208002
N                     3.373385536730     0.556643947411    -0.882430547758
S                     1.850493678894     1.153371062948    -1.328157115567
C                     1.041558611845     0.046991962911    -0.232517640562
N                    -0.320415404033    -0.060142879155    -0.110265285108
H                    -0.875974707498     0.760119120252    -0.315809726055
H                    -0.621446623497    -0.579615318455     0.707116656746
N                     1.896277768363    -0.719053693387     0.409716153875
