
  -OEChem-12122420533D

 19 19  0     0  0  0  0  0  0999 V2000
    5.0898    0.4313    2.8448 C   0  0  0  0  0  0  0  0  0  0  0  0
    6.1146    0.1855    3.0950 H   0  0  0  0  0  0  0  0  0  0  0  0
    4.0317    0.6153    3.7046 C   0  0  0  0  0  0  0  0  0  0  0  0
    4.1157    0.5291    4.7825 H   0  0  0  0  0  0  0  0  0  0  0  0
    2.8255    0.9417    3.0200 C   0  0  0  0  0  0  0  0  0  0  0  0
    1.8706    1.1484    3.4909 H   0  0  0  0  0  0  0  0  0  0  0  0
    3.0116    0.9954    1.6582 C   0  0  0  0  0  0  0  0  0  0  0  0
    1.7597    1.3532    0.4617 S   0  0  0  0  0  0  0  0  0  0  0  0
    0.6509    2.0261    1.1732 O   0  0  0  0  0  0  0  0  0  0  0  0
    2.3932    1.9649   -0.7097 O   0  0  0  0  0  0  0  0  0  0  0  0
    1.1465   -0.3145   -0.0014 C   0  0  0  0  0  0  0  0  0  0  0  0
   -0.0082   -0.2843   -0.9908 C   0  0  0  0  0  0  0  0  0  0  0  0
   -0.0099   -1.3012   -2.2977 S   0  0  0  0  0  0  0  0  0  0  0  0
   -1.0176    0.5527   -0.6738 N   0  0  0  0  0  0  0  0  0  0  0  0
   -0.9172    1.2469    0.0650 H   0  0  0  0  0  0  0  0  0  0  0  0
   -1.7862    0.6361   -1.3285 H   0  0  0  0  0  0  0  0  0  0  0  0
    0.8332   -0.7833    0.9364 H   0  0  0  0  0  0  0  0  0  0  0  0
    1.9875   -0.8578   -0.4278 H   0  0  0  0  0  0  0  0  0  0  0  0
    4.6516    0.6638    1.1905 S   0  0  0  0  0  0  0  0  0  0  0  0
  1  2  1  0  0  0  0
  1  3  2  0  0  0  0
  1 19  1  0  0  0  0
  3  4  1  0  0  0  0
  3  5  1  0  0  0  0
  5  6  1  0  0  0  0
  5  7  2  0  0  0  0
  7  8  1  0  0  0  0
  7 19  1  0  0  0  0
  8  9  2  0  0  0  0
  8 10  2  0  0  0  0
  8 11  1  0  0  0  0
 11 12  1  0  0  0  0
 11 17  1  0  0  0  0
 11 18  1  0  0  0  0
 12 13  2  0  0  0  0
 12 14  1  0  0  0  0
 14 15  1  0  0  0  0
 14 16  1  0  0  0  0
M  END
$$$$
