
  -OEChem-12122420533D

 16 16  0     0  0  0  0  0  0999 V2000
    1.3834   -2.8171   -0.6470 C   0  0  0  0  0  0  0  0  0  0  0  0
    1.4108   -3.8951   -0.7376 H   0  0  0  0  0  0  0  0  0  0  0  0
    2.4078   -2.0061   -0.7459 N   0  0  0  0  0  0  0  0  0  0  0  0
    1.8838   -0.7377   -0.5796 C   0  0  0  0  0  0  0  0  0  0  0  0
    2.8738    0.7151   -0.7054 S   0  0  0  0  0  0  0  0  0  0  0  0
    3.4871    0.8040   -2.0255 O   0  0  0  0  0  0  0  0  0  0  0  0
    2.0317    1.7967   -0.1704 O   0  0  0  0  0  0  0  0  0  0  0  0
    4.1499    0.5124    0.3741 N   0  0  0  0  0  0  0  0  0  0  0  0
    3.8071    0.3424    1.3188 H   0  0  0  0  0  0  0  0  0  0  0  0
    4.7534   -0.2480    0.0609 H   0  0  0  0  0  0  0  0  0  0  0  0
    0.5135   -0.7776   -0.3678 C   0  0  0  0  0  0  0  0  0  0  0  0
   -0.4286    0.1943   -0.0535 N   0  0  0  0  0  0  0  0  0  0  0  0
    0.0195    1.1099   -0.0183 H   0  0  0  0  0  0  0  0  0  0  0  0
   -1.2225    0.2116   -0.6884 H   0  0  0  0  0  0  0  0  0  0  0  0
    0.2079   -2.1226   -0.4184 N   0  0  0  0  0  0  0  0  0  0  0  0
   -0.7022   -2.5204   -0.2207 H   0  0  0  0  0  0  0  0  0  0  0  0
  1  2  1  0  0  0  0
  1  3  2  0  0  0  0
  1 15  1  0  0  0  0
  3  4  1  0  0  0  0
  4  5  1  0  0  0  0
  4 11  2  0  0  0  0
  5  6  2  0  0  0  0
  5  7  2  0  0  0  0
  5  8  1  0  0  0  0
  8  9  1  0  0  0  0
  8 10  1  0  0  0  0
 11 12  1  0  0  0  0
 11 15  1  0  0  0  0
 12 13  1  0  0  0  0
 12 14  1  0  0  0  0
 15 16  1  0  0  0  0
M  END
$$$$
