
  -OEChem-12122420533D

 16 16  0     0  0  0  0  0  0999 V2000
    0.6558    0.5656    0.1882 O   0  0  0  0  0  0  0  0  0  0  0  0
    1.9237    0.1657    0.0678 C   0  0  0  0  0  0  0  0  0  0  0  0
    2.2850   -0.9421   -0.2807 O   0  0  0  0  0  0  0  0  0  0  0  0
    2.9169    1.2829    0.4259 C   0  0  0  0  0  0  0  0  0  0  0  0
    2.5916    2.4049    0.7794 O   0  0  0  0  0  0  0  0  0  0  0  0
    4.2107    0.8532    0.2960 N   0  0  0  0  0  0  0  0  0  0  0  0
    5.3276    1.6298    0.5469 C   0  0  0  0  0  0  0  0  0  0  0  0
    6.5327    1.1329    0.3954 N   0  0  0  0  0  0  0  0  0  0  0  0
    7.4742    2.0744    0.6977 C   0  0  0  0  0  0  0  0  0  0  0  0
    8.5274    1.8278    0.6246 H   0  0  0  0  0  0  0  0  0  0  0  0
    6.9869    3.3037    1.0843 C   0  0  0  0  0  0  0  0  0  0  0  0
    7.7318    4.4517    1.4510 C   0  0  0  0  0  0  0  0  0  0  0  0
    8.3409    5.4002    1.7540 N   0  0  0  0  0  0  0  0  0  0  0  0
    5.2308    3.2948    1.0731 S   0  0  0  0  0  0  0  0  0  0  0  0
    4.3779   -0.1047   -0.0062 H   0  0  0  0  0  0  0  0  0  0  0  0
    0.0900   -0.1937   -0.0547 H   0  0  0  0  0  0  0  0  0  0  0  0
  1  2  1  0  0  0  0
  1 16  1  0  0  0  0
  2  3  2  0  0  0  0
  2  4  1  0  0  0  0
  4  5  2  0  0  0  0
  4  6  1  0  0  0  0
  6  7  1  0  0  0  0
  6 15  1  0  0  0  0
  7  8  2  0  0  0  0
  7 14  1  0  0  0  0
  8  9  1  0  0  0  0
  9 10  1  0  0  0  0
  9 11  2  0  0  0  0
 11 12  1  0  0  0  0
 11 14  1  0  0  0  0
 12 13  3  0  0  0  0
M  END
$$$$
