
  -OEChem-12102412493D

  8  8  0     0  0  0  0  0  0999 V2000
   -0.0975   -3.2590    1.2418 C   0  0  0  0  0  0  0  0  0  0  0  0
   -0.0029   -4.3369    1.3215 H   0  0  0  0  0  0  0  0  0  0  0  0
   -0.5531   -2.4930    2.1937 N   0  0  0  0  0  0  0  0  0  0  0  0
   -0.5529   -1.1728    1.7942 C   0  0  0  0  0  0  0  0  0  0  0  0
   -0.9057   -0.4103    2.4802 H   0  0  0  0  0  0  0  0  0  0  0  0
   -0.0925   -0.9342    0.5266 C   0  0  0  0  0  0  0  0  0  0  0  0
   -0.0024    0.0107    0.0072 H   0  0  0  0  0  0  0  0  0  0  0  0
    0.3692   -2.4275   -0.2216 S   0  0  0  0  0  0  0  0  0  0  0  0
  1  2  1  0  0  0  0
  1  3  2  0  0  0  0
  1  8  1  0  0  0  0
  3  4  1  0  0  0  0
  4  5  1  0  0  0  0
  4  6  2  0  0  0  0
  6  7  1  0  0  0  0
  6  8  1  0  0  0  0
M  END
$$$$
