50
0 1 BrC17H24N5O2S
N                    -2.671162467406    -8.481970643295     0.988722780952
S                    -2.222215798060    -7.604281687389     2.186026649232
O                    -1.604686461783    -8.365688687386     3.289990923152
C                    -3.586919257074    -6.597549132671     2.828036850422
C                    -3.660161330692    -5.224733545771     2.574497946797
H                    -2.884990754244    -4.716102645742     2.012468547038
C                    -4.729265934149    -4.472785138615     3.050733681635
H                    -4.765943259539    -3.402974639218     2.859839056673
C                    -5.747937800970    -5.091498397774     3.795109811620
N                    -6.812867339113    -4.295111096077     4.230295518650
C                    -7.670902944461    -4.455220969102     5.302182101955
N                    -8.533963886483    -3.435256565777     5.464091198664
C                    -9.361268340254    -3.552061830321     6.513454068387
H                   -10.069299304094    -2.741062739314     6.670691075378
C                    -9.337731982578    -4.635697163724     7.374059178350
Br                  -10.542454915351    -4.742552229799     8.858657376049
C                    -8.384940471816    -5.659223390061     7.128749329608
N                    -8.281135800146    -6.755533676557     7.911964934272
C                    -7.314855562285    -7.837424355030     7.715954499209
C                    -7.960633796263    -9.146311043254     8.180464259738
H                    -7.283735465458    -9.991227551784     8.040315522610
H                    -8.231890727674    -9.105605753231     9.240544179792
H                    -8.870196122170    -9.339104747639     7.604350337549
C                    -5.933610574010    -7.527721064106     8.374180669258
O                    -5.499942870019    -6.216168026546     7.984936974052
H                    -5.748099432857    -6.066232802503     7.054267240323
C                    -4.889587250513    -8.553919587731     7.907310915956
H                    -3.906676613370    -8.251994355120     8.278376209785
H                    -4.837344928904    -8.585280454896     6.813972483383
H                    -5.097376651691    -9.564304079048     8.272483345285
C                    -6.014632473394    -7.482675266806     9.900953089415
H                    -5.056425606480    -7.136140278916    10.297389837528
H                    -6.783132834603    -6.775260159404    10.227814893186
H                    -6.226279978613    -8.466867460026    10.327713729031
H                    -7.143936260462    -7.902098684476     6.637682080498
H                    -8.867111447666    -6.779808961416     8.736809941705
N                    -7.559429124439    -5.545291494269     6.067833859905
H                    -6.893772745426    -3.374167041510     3.816094820752
C                    -5.673424580190    -6.477197719344     4.025120586274
H                    -6.471867073879    -6.961242035437     4.569063724993
C                    -4.606722562980    -7.247957238609     3.555130846472
C                    -4.591400157469    -8.732793047459     3.834706131421
H                    -3.763172199504    -8.991672703833     4.499843631013
H                    -5.532848098540    -9.041194250231     4.295673558534
H                    -4.442202511206    -9.308555024469     2.917292895374
C                    -0.967144892256    -6.371687446022     1.703970875261
H                    -0.704257903868    -5.742259771834     2.555909792923
H                    -0.115643164931    -6.989819896150     1.412662424484
H                    -1.305060911619    -5.784874550195     0.848272322854
H                    -3.305803807145    -7.970041069497     0.372729439738
