
  -OEChem-12102412493D

  9  9  0     0  0  0  0  0  0999 V2000
    3.1643   -0.3894    0.0036 C   0  0  0  0  0  0  0  0  0  0  0  0
    4.0148   -0.9165    0.4269 H   0  0  0  0  0  0  0  0  0  0  0  0
    3.3734    0.5566   -0.8824 N   0  0  0  0  0  0  0  0  0  0  0  0
    1.8505    1.1534   -1.3282 S   0  0  0  0  0  0  0  0  0  0  0  0
    1.0416    0.0470   -0.2325 C   0  0  0  0  0  0  0  0  0  0  0  0
   -0.3204   -0.0601   -0.1103 N   0  0  0  0  0  0  0  0  0  0  0  0
   -0.8760    0.7601   -0.3158 H   0  0  0  0  0  0  0  0  0  0  0  0
   -0.6214   -0.5796    0.7071 H   0  0  0  0  0  0  0  0  0  0  0  0
    1.8963   -0.7191    0.4097 N   0  0  0  0  0  0  0  0  0  0  0  0
  1  2  1  0  0  0  0
  1  3  2  0  0  0  0
  1  9  1  0  0  0  0
  3  4  1  0  0  0  0
  4  5  1  0  0  0  0
  5  6  1  0  0  0  0
  5  9  2  0  0  0  0
  6  7  1  0  0  0  0
  6  8  1  0  0  0  0
M  END
$$$$
