
  -OEChem-12122420533D

 16 16  0     0  0  0  0  0  0999 V2000
   -0.7301    0.3709   -3.2143 C   0  0  0  0  0  0  0  0  0  0  0  0
   -0.5700    0.7964   -4.1975 H   0  0  0  0  0  0  0  0  0  0  0  0
   -0.3976    0.9176   -1.9949 C   0  0  0  0  0  0  0  0  0  0  0  0
    0.0803    1.8847   -1.8827 H   0  0  0  0  0  0  0  0  0  0  0  0
   -0.7651    0.0771   -0.9074 C   0  0  0  0  0  0  0  0  0  0  0  0
   -0.6264    0.3107    0.1427 H   0  0  0  0  0  0  0  0  0  0  0  0
   -1.3627   -1.0852   -1.3430 C   0  0  0  0  0  0  0  0  0  0  0  0
   -1.9568   -2.3717   -0.2920 S   0  0  0  0  0  0  0  0  0  0  0  0
   -2.1694   -1.8151    1.0479 O   0  0  0  0  0  0  0  0  0  0  0  0
   -2.9894   -3.1241   -1.0070 O   0  0  0  0  0  0  0  0  0  0  0  0
   -0.4954   -3.4958   -0.0976 C   0  0  0  0  0  0  0  0  0  0  0  0
    0.0084   -3.9799   -1.3739 C   0  0  0  0  0  0  0  0  0  0  0  0
    0.4080   -4.3386   -2.4048 N   0  0  0  0  0  0  0  0  0  0  0  0
    0.2689   -2.9345    0.4441 H   0  0  0  0  0  0  0  0  0  0  0  0
   -0.8616   -4.3191    0.5226 H   0  0  0  0  0  0  0  0  0  0  0  0
   -1.4962   -1.1667   -3.0723 S   0  0  0  0  0  0  0  0  0  0  0  0
  1  2  1  0  0  0  0
  1  3  2  0  0  0  0
  1 16  1  0  0  0  0
  3  4  1  0  0  0  0
  3  5  1  0  0  0  0
  5  6  1  0  0  0  0
  5  7  2  0  0  0  0
  7  8  1  0  0  0  0
  7 16  1  0  0  0  0
  8  9  2  0  0  0  0
  8 10  2  0  0  0  0
  8 11  1  0  0  0  0
 11 12  1  0  0  0  0
 11 14  1  0  0  0  0
 11 15  1  0  0  0  0
 12 13  3  0  0  0  0
M  END
$$$$
