19
0 1 C6H7NO2S3
C                     5.027129641708     0.187859703699     2.954350360504
H                     5.966938091237    -0.215565686748     3.311158598966
C                     4.040246450078     0.804375792620     3.687473806984
H                     4.099551398287     0.957243505093     4.759628206876
C                     2.944668645385     1.225841702029     2.879313418330
H                     2.061815676627     1.745230621290     3.236163117827
C                     3.140257865971     0.914735197187     1.554021056511
S                     1.990681892641     1.247055908395     0.252359177119
O                     1.089001222069     2.311363155305     0.701392922574
O                     2.757383347673     1.371468100634    -1.006881496936
C                     1.045959545869    -0.323684438586     0.135783570192
C                     0.024469630481    -0.342897402576    -0.990863212809
S                    -1.505349098833    -0.914243369304    -0.714398727844
N                     0.485318929365     0.054007683243    -2.194634245740
H                     1.389017998237     0.515376036178    -2.288790963798
H                    -0.172944902225     0.093710828048    -2.963641780971
H                     0.549501399177    -0.467147444335     1.093304644608
H                     1.794594335292    -1.106859645862    -0.019552955056
S                     4.657232892871     0.117387825152     1.267828548129
