9
0 1 C2H2N2S3
S                    -4.635744154660     2.258880089815     0.533145404737
C                    -3.164074195435     1.301154001564     0.357512959629
N                    -3.215087201341     0.001928374673     0.330209421140
N                    -1.983101868315    -0.584533115735     0.188560138530
C                    -1.011882623751     0.276740466756     0.110064393564
S                     0.658393024914    -0.261378843921    -0.075598213982
H                     1.201697833039     0.972651235138    -0.100394135131
S                    -1.534540693984     1.958390673730     0.206093711016
H                    -4.025790212408     3.461186910572     0.500518026003
