16
0 1 C3H6N4O2S
C                     1.383427452677    -2.817075166757    -0.647032600930
H                     1.410801017187    -3.895055246811    -0.737636200940
N                     2.407769982488    -2.006077181730    -0.745891391885
C                     1.883770839617    -0.737696511267    -0.579557839226
S                     2.873802588025     0.715063522590    -0.705383770718
O                     3.487067422748     0.803959060275    -2.025530005875
O                     2.031704715449     1.796739164612    -0.170400951578
N                     4.149906340582     0.512372807338     0.374050710565
H                     3.807134638760     0.342419804268     1.318761807030
H                     4.753440484834    -0.248045462083     0.060917721594
C                     0.513458472595    -0.777569056280    -0.367773197733
N                    -0.428559487584     0.194282406881    -0.053540631437
H                     0.019526961872     1.109882036209    -0.018288898870
H                    -1.222528523513     0.211637752483    -0.688365087658
N                     0.207896665399    -2.122557034040    -0.418409011416
H                    -0.702212411695    -2.520383512635    -0.220733731931
