
  -OEChem-12122420533D

  7  7  0     0  0  0  0  0  0999 V2000
   -3.1638    1.2688    0.3552 C   0  0  0  0  0  0  0  0  0  0  0  0
   -4.0393    1.8999    0.4605 H   0  0  0  0  0  0  0  0  0  0  0  0
   -3.2300   -0.0321    0.3305 N   0  0  0  0  0  0  0  0  0  0  0  0
   -1.9959   -0.6245    0.1894 N   0  0  0  0  0  0  0  0  0  0  0  0
   -1.0425    0.2523    0.1127 C   0  0  0  0  0  0  0  0  0  0  0  0
    0.7747   -0.2116   -0.0851 Br  0  0  0  0  0  0  0  0  0  0  0  0
   -1.5559    1.9218    0.2058 S   0  0  0  0  0  0  0  0  0  0  0  0
  1  2  1  0  0  0  0
  1  3  2  0  0  0  0
  1  7  1  0  0  0  0
  3  4  1  0  0  0  0
  4  5  2  0  0  0  0
  5  6  1  0  0  0  0
  5  7  1  0  0  0  0
M  END
$$$$
