
  -OEChem-12102412493D

 16 16  0     0  0  0  0  0  0999 V2000
   -1.1077    0.6521   -3.0567 C   0  0  0  0  0  0  0  0  0  0  0  0
   -1.2393    1.2944   -3.9190 H   0  0  0  0  0  0  0  0  0  0  0  0
   -0.1043    0.7009   -2.1146 C   0  0  0  0  0  0  0  0  0  0  0  0
    0.7057    1.4216   -2.1396 H   0  0  0  0  0  0  0  0  0  0  0  0
   -0.2467   -0.3072   -1.1207 C   0  0  0  0  0  0  0  0  0  0  0  0
    0.4368   -0.4780   -0.2959 H   0  0  0  0  0  0  0  0  0  0  0  0
   -1.3610   -1.0860   -1.3429 C   0  0  0  0  0  0  0  0  0  0  0  0
   -1.8686   -2.4371   -0.3282 S   0  0  0  0  0  0  0  0  0  0  0  0
   -2.6935   -3.3432   -1.1296 O   0  0  0  0  0  0  0  0  0  0  0  0
   -0.7105   -2.8976    0.4446 O   0  0  0  0  0  0  0  0  0  0  0  0
   -2.9806   -1.6527    0.9308 C   0  0  0  0  0  0  0  0  0  0  0  0
   -4.0926   -0.9378    0.3232 C   0  0  0  0  0  0  0  0  0  0  0  0
   -4.9619   -0.3549   -0.1826 N   0  0  0  0  0  0  0  0  0  0  0  0
   -3.3330   -2.4866    1.5449 H   0  0  0  0  0  0  0  0  0  0  0  0
   -2.3602   -0.9850    1.5324 H   0  0  0  0  0  0  0  0  0  0  0  0
   -2.2407   -0.6135   -2.7634 S   0  0  0  0  0  0  0  0  0  0  0  0
  1  2  1  0  0  0  0
  1  3  2  0  0  0  0
  1 16  1  0  0  0  0
  3  4  1  0  0  0  0
  3  5  1  0  0  0  0
  5  6  1  0  0  0  0
  5  7  2  0  0  0  0
  7  8  1  0  0  0  0
  7 16  1  0  0  0  0
  8  9  2  0  0  0  0
  8 10  2  0  0  0  0
  8 11  1  0  0  0  0
 11 12  1  0  0  0  0
 11 14  1  0  0  0  0
 11 15  1  0  0  0  0
 12 13  3  0  0  0  0
M  END
$$$$
