16
0 1 C6H5NO2S2
C                    -1.107692285036     0.652124084754    -3.056668631599
H                    -1.239326608470     1.294391032144    -3.918992995985
C                    -0.104323752180     0.700851092737    -2.114644421838
H                     0.705723460153     1.421559306299    -2.139589168785
C                    -0.246650418662    -0.307184089895    -1.120698783527
H                     0.436766142395    -0.477968107564    -0.295940206608
C                    -1.361034980334    -1.086025155895    -1.342889377362
S                    -1.868635836923    -2.437088304997    -0.328207019866
O                    -2.693538281251    -3.343206666241    -1.129556067011
O                    -0.710547545441    -2.897617472835     0.444578226803
C                    -2.980594888392    -1.652683173464     0.930805980985
C                    -4.092632956602    -0.937794385189     0.323205347998
N                    -4.961889214358    -0.354943047547    -0.182622061129
H                    -3.332950661554    -2.486612237983     1.544875577826
H                    -2.360224182708    -0.985003882268     1.532353392902
S                    -2.240701392099    -0.613476495023    -2.763444273564
