
  -OEChem-12102412493D

 50 51  0     1  0  0  0  0  0999 V2000
   -2.6712   -8.4820    0.9887 N   0  0  0  0  0  0  0  0  0  0  0  0
   -2.2222   -7.6043    2.1860 S   0  0  2  0  0  0  0  0  0  0  0  0
   -1.6047   -8.3657    3.2900 O   0  0  0  0  0  0  0  0  0  0  0  0
   -3.5869   -6.5975    2.8280 C   0  0  0  0  0  0  0  0  0  0  0  0
   -3.6602   -5.2247    2.5745 C   0  0  0  0  0  0  0  0  0  0  0  0
   -2.8850   -4.7161    2.0125 H   0  0  0  0  0  0  0  0  0  0  0  0
   -4.7293   -4.4728    3.0507 C   0  0  0  0  0  0  0  0  0  0  0  0
   -4.7659   -3.4030    2.8598 H   0  0  0  0  0  0  0  0  0  0  0  0
   -5.7479   -5.0915    3.7951 C   0  0  0  0  0  0  0  0  0  0  0  0
   -6.8129   -4.2951    4.2303 N   0  0  0  0  0  0  0  0  0  0  0  0
   -7.6709   -4.4552    5.3022 C   0  0  0  0  0  0  0  0  0  0  0  0
   -8.5340   -3.4353    5.4641 N   0  0  0  0  0  0  0  0  0  0  0  0
   -9.3613   -3.5521    6.5135 C   0  0  0  0  0  0  0  0  0  0  0  0
  -10.0693   -2.7411    6.6707 H   0  0  0  0  0  0  0  0  0  0  0  0
   -9.3377   -4.6357    7.3741 C   0  0  0  0  0  0  0  0  0  0  0  0
  -10.5425   -4.7426    8.8587 Br  0  0  0  0  0  0  0  0  0  0  0  0
   -8.3849   -5.6592    7.1287 C   0  0  0  0  0  0  0  0  0  0  0  0
   -8.2811   -6.7555    7.9120 N   0  0  0  0  0  0  0  0  0  0  0  0
   -7.3149   -7.8374    7.7160 C   0  0  2  0  0  0  0  0  0  0  0  0
   -7.9606   -9.1463    8.1805 C   0  0  0  0  0  0  0  0  0  0  0  0
   -7.2837   -9.9912    8.0403 H   0  0  0  0  0  0  0  0  0  0  0  0
   -8.2319   -9.1056    9.2405 H   0  0  0  0  0  0  0  0  0  0  0  0
   -8.8702   -9.3391    7.6044 H   0  0  0  0  0  0  0  0  0  0  0  0
   -5.9336   -7.5277    8.3742 C   0  0  0  0  0  0  0  0  0  0  0  0
   -5.4999   -6.2162    7.9849 O   0  0  0  0  0  0  0  0  0  0  0  0
   -5.7481   -6.0662    7.0543 H   0  0  0  0  0  0  0  0  0  0  0  0
   -4.8896   -8.5539    7.9073 C   0  0  0  0  0  0  0  0  0  0  0  0
   -3.9067   -8.2520    8.2784 H   0  0  0  0  0  0  0  0  0  0  0  0
   -4.8373   -8.5853    6.8140 H   0  0  0  0  0  0  0  0  0  0  0  0
   -5.0974   -9.5643    8.2725 H   0  0  0  0  0  0  0  0  0  0  0  0
   -6.0146   -7.4827    9.9010 C   0  0  0  0  0  0  0  0  0  0  0  0
   -5.0564   -7.1361   10.2974 H   0  0  0  0  0  0  0  0  0  0  0  0
   -6.7831   -6.7753   10.2278 H   0  0  0  0  0  0  0  0  0  0  0  0
   -6.2263   -8.4669   10.3277 H   0  0  0  0  0  0  0  0  0  0  0  0
   -7.1439   -7.9021    6.6377 H   0  0  0  0  0  0  0  0  0  0  0  0
   -8.8671   -6.7798    8.7368 H   0  0  0  0  0  0  0  0  0  0  0  0
   -7.5594   -5.5453    6.0678 N   0  0  0  0  0  0  0  0  0  0  0  0
   -6.8938   -3.3742    3.8161 H   0  0  0  0  0  0  0  0  0  0  0  0
   -5.6734   -6.4772    4.0251 C   0  0  0  0  0  0  0  0  0  0  0  0
   -6.4719   -6.9612    4.5691 H   0  0  0  0  0  0  0  0  0  0  0  0
   -4.6067   -7.2480    3.5551 C   0  0  0  0  0  0  0  0  0  0  0  0
   -4.5914   -8.7328    3.8347 C   0  0  0  0  0  0  0  0  0  0  0  0
   -3.7632   -8.9917    4.4998 H   0  0  0  0  0  0  0  0  0  0  0  0
   -5.5328   -9.0412    4.2957 H   0  0  0  0  0  0  0  0  0  0  0  0
   -4.4422   -9.3086    2.9173 H   0  0  0  0  0  0  0  0  0  0  0  0
   -0.9671   -6.3717    1.7040 C   0  0  0  0  0  0  0  0  0  0  0  0
   -0.7043   -5.7423    2.5559 H   0  0  0  0  0  0  0  0  0  0  0  0
   -0.1156   -6.9898    1.4127 H   0  0  0  0  0  0  0  0  0  0  0  0
   -1.3051   -5.7849    0.8483 H   0  0  0  0  0  0  0  0  0  0  0  0
   -3.3058   -7.9700    0.3727 H   0  0  0  0  0  0  0  0  0  0  0  0
  1  2  2  0  0  0  0
  1 50  1  0  0  0  0
  2  3  2  0  0  0  0
  2  4  1  0  0  0  0
  2 46  1  0  0  0  0
  4  5  2  0  0  0  0
  4 41  1  0  0  0  0
  5  6  1  0  0  0  0
  5  7  1  0  0  0  0
  7  8  1  0  0  0  0
  7  9  2  0  0  0  0
  9 10  1  0  0  0  0
  9 39  1  0  0  0  0
 10 11  1  0  0  0  0
 10 38  1  0  0  0  0
 11 12  1  0  0  0  0
 11 37  2  0  0  0  0
 12 13  2  0  0  0  0
 13 14  1  0  0  0  0
 13 15  1  0  0  0  0
 15 16  1  0  0  0  0
 15 17  2  0  0  0  0
 17 18  1  0  0  0  0
 17 37  1  0  0  0  0
 18 19  1  0  0  0  0
 18 36  1  0  0  0  0
 19 20  1  0  0  0  0
 19 24  1  0  0  0  0
 19 35  1  0  0  0  0
 20 21  1  0  0  0  0
 20 22  1  0  0  0  0
 20 23  1  0  0  0  0
 24 25  1  0  0  0  0
 24 27  1  0  0  0  0
 24 31  1  0  0  0  0
 25 26  1  0  0  0  0
 27 28  1  0  0  0  0
 27 29  1  0  0  0  0
 27 30  1  0  0  0  0
 31 32  1  0  0  0  0
 31 33  1  0  0  0  0
 31 34  1  0  0  0  0
 39 40  1  0  0  0  0
 39 41  2  0  0  0  0
 41 42  1  0  0  0  0
 42 43  1  0  0  0  0
 42 44  1  0  0  0  0
 42 45  1  0  0  0  0
 46 47  1  0  0  0  0
 46 48  1  0  0  0  0
 46 49  1  0  0  0  0
M  END
$$$$
