14
0 1 C5H4N4S
C                     3.452663326237    -4.375193933458     0.501222223284
H                     4.112739536856    -5.236756515499     0.486848341464
N                     3.097983708397    -3.763022918613     1.591789873398
C                     2.255727945216    -2.710238441964     1.281178794844
C                     1.959653957318    -2.520599522773    -0.075466078433
N                     1.158489889359    -1.563692574385    -0.562529609809
C                     0.642008841205    -0.779613664728     0.390319628894
H                    -0.021987223143     0.012011232577     0.048810787319
N                     0.834765455559    -0.842802805414     1.718613256306
C                     1.648520072847    -1.802791168575     2.187015506810
N                     1.898466106633    -1.867041473613     3.522239101387
H                     2.355637655653    -2.692384420926     3.886567741778
H                     1.303219565430    -1.326900843577     4.136323409355
S                     2.804841859672    -3.744306915525    -1.011959195694
