
  -OEChem-12102412493D

 15 15  0     0  0  0  0  0  0999 V2000
    0.6636    0.6423    0.2131 O   0  0  0  0  0  0  0  0  0  0  0  0
    1.9232    0.2186    0.0853 C   0  0  0  0  0  0  0  0  0  0  0  0
    2.2482   -0.9024   -0.2664 O   0  0  0  0  0  0  0  0  0  0  0  0
    2.9473    1.3223    0.4379 C   0  0  0  0  0  0  0  0  0  0  0  0
    2.6268    2.4367    0.7881 O   0  0  0  0  0  0  0  0  0  0  0  0
    4.2239    0.8146    0.2833 N   0  0  0  0  0  0  0  0  0  0  0  0
    5.4223    1.4820    0.4990 C   0  0  0  0  0  0  0  0  0  0  0  0
    5.5541    2.7144    0.8879 N   0  0  0  0  0  0  0  0  0  0  0  0
    6.8840    3.0556    1.0014 C   0  0  0  0  0  0  0  0  0  0  0  0
    7.1569    4.0558    1.3177 H   0  0  0  0  0  0  0  0  0  0  0  0
    7.7741    2.0670    0.6939 C   0  0  0  0  0  0  0  0  0  0  0  0
    9.6583    2.1505    0.7287 Br  0  0  0  0  0  0  0  0  0  0  0  0
    6.9344    0.6044    0.2293 S   0  0  0  0  0  0  0  0  0  0  0  0
    4.2560   -0.1546   -0.0221 H   0  0  0  0  0  0  0  0  0  0  0  0
    0.0852   -0.1083   -0.0261 H   0  0  0  0  0  0  0  0  0  0  0  0
  1  2  1  0  0  0  0
  1 15  1  0  0  0  0
  2  3  2  0  0  0  0
  2  4  1  0  0  0  0
  4  5  2  0  0  0  0
  4  6  1  0  0  0  0
  6  7  1  0  0  0  0
  6 14  1  0  0  0  0
  7  8  2  0  0  0  0
  7 13  1  0  0  0  0
  8  9  1  0  0  0  0
  9 10  1  0  0  0  0
  9 11  2  0  0  0  0
 11 12  1  0  0  0  0
 11 13  1  0  0  0  0
M  END
$$$$
