19
0 1 C6H7NO2S3
C                     3.697272422641     0.572384556380     4.057085488059
H                     3.771976655227     0.403540460031     5.124425703568
C                     4.710630069658     0.560510677040     3.127304274617
H                     5.748238685840     0.366987644748     3.376939136328
C                     4.244224394187     0.841204690238     1.810229966086
H                     4.863636601189     0.899597321061     0.921717944487
C                     2.886492485084     1.059101286180     1.786557451113
S                     1.938501945150     1.405476637180     0.334759948269
O                     0.743461669431     2.173526885545     0.748116629682
O                     2.849859203113     1.913353332681    -0.694266837043
C                     1.342915497549    -0.258133564133    -0.166385311482
C                     0.409942710514    -0.239523475864    -1.367309947823
S                     0.615228912982    -1.332595404210    -2.594606633177
N                    -0.598148236812     0.653979951566    -1.301272648387
H                    -0.609505961993     1.386818166238    -0.593311715860
H                    -1.219632251971     0.726061962904    -2.098026664599
H                     0.824102714684    -0.661357338063     0.708944958717
H                     2.223981164986    -0.857512529551    -0.386324277452
S                     2.158980597790     0.937615078783     3.359689388039
