
  -OEChem-12122420533D

 50 51  0     1  0  0  0  0  0999 V2000
   -5.4463    0.9200    0.2910 N   0  0  0  0  0  0  0  0  0  0  0  0
   -6.2829   -0.3115   -0.1455 S   0  0  2  0  0  0  0  0  0  0  0  0
   -7.5968    0.0257   -0.7303 O   0  0  0  0  0  0  0  0  0  0  0  0
   -6.4915   -1.4932    1.2111 C   0  0  0  0  0  0  0  0  0  0  0  0
   -5.8282   -2.7244    1.2121 C   0  0  0  0  0  0  0  0  0  0  0  0
   -5.1829   -3.0161    0.3913 H   0  0  0  0  0  0  0  0  0  0  0  0
   -5.9814   -3.6073    2.2744 C   0  0  0  0  0  0  0  0  0  0  0  0
   -5.4590   -4.5614    2.2611 H   0  0  0  0  0  0  0  0  0  0  0  0
   -6.8130   -3.2713    3.3590 C   0  0  0  0  0  0  0  0  0  0  0  0
   -6.9236   -4.2136    4.3846 N   0  0  0  0  0  0  0  0  0  0  0  0
   -7.6385   -4.2191    5.5679 C   0  0  0  0  0  0  0  0  0  0  0  0
   -8.3763   -3.1574    5.9128 N   0  0  0  0  0  0  0  0  0  0  0  0
   -9.0272   -3.2722    7.0866 C   0  0  0  0  0  0  0  0  0  0  0  0
   -9.6354   -2.4225    7.3896 H   0  0  0  0  0  0  0  0  0  0  0  0
   -8.9467   -4.3933    7.8845 C   0  0  0  0  0  0  0  0  0  0  0  0
   -9.8930   -4.4929    9.5463 Br  0  0  0  0  0  0  0  0  0  0  0  0
   -8.1356   -5.4767    7.4329 C   0  0  0  0  0  0  0  0  0  0  0  0
   -7.9821   -6.6067    8.1570 N   0  0  0  0  0  0  0  0  0  0  0  0
   -7.2631   -7.7882    7.6831 C   0  0  2  0  0  0  0  0  0  0  0  0
   -8.1740   -8.6516    6.7994 C   0  0  0  0  0  0  0  0  0  0  0  0
   -7.6161   -9.4580    6.3151 H   0  0  0  0  0  0  0  0  0  0  0  0
   -8.9839   -9.0897    7.3891 H   0  0  0  0  0  0  0  0  0  0  0  0
   -8.6073   -8.0268    6.0142 H   0  0  0  0  0  0  0  0  0  0  0  0
   -6.6901   -8.5188    8.9209 C   0  0  0  0  0  0  0  0  0  0  0  0
   -7.8367   -8.7467    9.7745 O   0  0  0  0  0  0  0  0  0  0  0  0
   -7.5214   -9.0931   10.6240 H   0  0  0  0  0  0  0  0  0  0  0  0
   -5.6709   -7.6284    9.6445 C   0  0  0  0  0  0  0  0  0  0  0  0
   -5.3133   -8.1219   10.5562 H   0  0  0  0  0  0  0  0  0  0  0  0
   -6.1141   -6.6690    9.9204 H   0  0  0  0  0  0  0  0  0  0  0  0
   -4.7995   -7.4376    9.0098 H   0  0  0  0  0  0  0  0  0  0  0  0
   -6.0517   -9.8589    8.5385 C   0  0  0  0  0  0  0  0  0  0  0  0
   -5.5719  -10.3106    9.4141 H   0  0  0  0  0  0  0  0  0  0  0  0
   -6.8032  -10.5582    8.1669 H   0  0  0  0  0  0  0  0  0  0  0  0
   -5.2823   -9.7275    7.7701 H   0  0  0  0  0  0  0  0  0  0  0  0
   -6.4229   -7.4320    7.0831 H   0  0  0  0  0  0  0  0  0  0  0  0
   -8.5622   -6.7362    8.9787 H   0  0  0  0  0  0  0  0  0  0  0  0
   -7.4911   -5.3649    6.2609 N   0  0  0  0  0  0  0  0  0  0  0  0
   -6.4118   -5.0771    4.2519 H   0  0  0  0  0  0  0  0  0  0  0  0
   -7.4750   -2.0303    3.3484 C   0  0  0  0  0  0  0  0  0  0  0  0
   -8.1124   -1.7745    4.1831 H   0  0  0  0  0  0  0  0  0  0  0  0
   -7.3299   -1.1310    2.2874 C   0  0  0  0  0  0  0  0  0  0  0  0
   -8.0816    0.1795    2.3307 C   0  0  0  0  0  0  0  0  0  0  0  0
   -8.8174    0.2276    1.5232 H   0  0  0  0  0  0  0  0  0  0  0  0
   -8.5937    0.2897    3.2889 H   0  0  0  0  0  0  0  0  0  0  0  0
   -7.4087    1.0290    2.1865 H   0  0  0  0  0  0  0  0  0  0  0  0
   -5.4351   -1.2788   -1.4399 C   0  0  0  0  0  0  0  0  0  0  0  0
   -6.0283   -2.1514   -1.7189 H   0  0  0  0  0  0  0  0  0  0  0  0
   -5.3820   -0.5757   -2.2735 H   0  0  0  0  0  0  0  0  0  0  0  0
   -4.4265   -1.5505   -1.1239 H   0  0  0  0  0  0  0  0  0  0  0  0
   -4.7145    0.6509    0.9511 H   0  0  0  0  0  0  0  0  0  0  0  0
  1  2  2  0  0  0  0
  1 50  1  0  0  0  0
  2  3  2  0  0  0  0
  2  4  1  0  0  0  0
  2 46  1  0  0  0  0
  4  5  2  0  0  0  0
  4 41  1  0  0  0  0
  5  6  1  0  0  0  0
  5  7  1  0  0  0  0
  7  8  1  0  0  0  0
  7  9  2  0  0  0  0
  9 10  1  0  0  0  0
  9 39  1  0  0  0  0
 10 11  1  0  0  0  0
 10 38  1  0  0  0  0
 11 12  1  0  0  0  0
 11 37  2  0  0  0  0
 12 13  2  0  0  0  0
 13 14  1  0  0  0  0
 13 15  1  0  0  0  0
 15 16  1  0  0  0  0
 15 17  2  0  0  0  0
 17 18  1  0  0  0  0
 17 37  1  0  0  0  0
 18 19  1  0  0  0  0
 18 36  1  0  0  0  0
 19 20  1  0  0  0  0
 19 24  1  0  0  0  0
 19 35  1  0  0  0  0
 20 21  1  0  0  0  0
 20 22  1  0  0  0  0
 20 23  1  0  0  0  0
 24 25  1  0  0  0  0
 24 27  1  0  0  0  0
 24 31  1  0  0  0  0
 25 26  1  0  0  0  0
 27 28  1  0  0  0  0
 27 29  1  0  0  0  0
 27 30  1  0  0  0  0
 31 32  1  0  0  0  0
 31 33  1  0  0  0  0
 31 34  1  0  0  0  0
 39 40  1  0  0  0  0
 39 41  2  0  0  0  0
 41 42  1  0  0  0  0
 42 43  1  0  0  0  0
 42 44  1  0  0  0  0
 42 45  1  0  0  0  0
 46 47  1  0  0  0  0
 46 48  1  0  0  0  0
 46 49  1  0  0  0  0
M  END
$$$$
