
  -OEChem-12122420533D

 19 19  0     0  0  0  0  0  0999 V2000
    3.6973    0.5724    4.0571 C   0  0  0  0  0  0  0  0  0  0  0  0
    3.7720    0.4035    5.1244 H   0  0  0  0  0  0  0  0  0  0  0  0
    4.7106    0.5605    3.1273 C   0  0  0  0  0  0  0  0  0  0  0  0
    5.7482    0.3670    3.3769 H   0  0  0  0  0  0  0  0  0  0  0  0
    4.2442    0.8412    1.8102 C   0  0  0  0  0  0  0  0  0  0  0  0
    4.8636    0.8996    0.9217 H   0  0  0  0  0  0  0  0  0  0  0  0
    2.8865    1.0591    1.7866 C   0  0  0  0  0  0  0  0  0  0  0  0
    1.9385    1.4055    0.3348 S   0  0  0  0  0  0  0  0  0  0  0  0
    0.7435    2.1735    0.7481 O   0  0  0  0  0  0  0  0  0  0  0  0
    2.8499    1.9134   -0.6943 O   0  0  0  0  0  0  0  0  0  0  0  0
    1.3429   -0.2581   -0.1664 C   0  0  0  0  0  0  0  0  0  0  0  0
    0.4099   -0.2395   -1.3673 C   0  0  0  0  0  0  0  0  0  0  0  0
    0.6152   -1.3326   -2.5946 S   0  0  0  0  0  0  0  0  0  0  0  0
   -0.5981    0.6540   -1.3013 N   0  0  0  0  0  0  0  0  0  0  0  0
   -0.6095    1.3868   -0.5933 H   0  0  0  0  0  0  0  0  0  0  0  0
   -1.2196    0.7261   -2.0980 H   0  0  0  0  0  0  0  0  0  0  0  0
    0.8241   -0.6614    0.7089 H   0  0  0  0  0  0  0  0  0  0  0  0
    2.2240   -0.8575   -0.3863 H   0  0  0  0  0  0  0  0  0  0  0  0
    2.1590    0.9376    3.3597 S   0  0  0  0  0  0  0  0  0  0  0  0
  1  2  1  0  0  0  0
  1  3  2  0  0  0  0
  1 19  1  0  0  0  0
  3  4  1  0  0  0  0
  3  5  1  0  0  0  0
  5  6  1  0  0  0  0
  5  7  2  0  0  0  0
  7  8  1  0  0  0  0
  7 19  1  0  0  0  0
  8  9  2  0  0  0  0
  8 10  2  0  0  0  0
  8 11  1  0  0  0  0
 11 12  1  0  0  0  0
 11 17  1  0  0  0  0
 11 18  1  0  0  0  0
 12 13  2  0  0  0  0
 12 14  1  0  0  0  0
 14 15  1  0  0  0  0
 14 16  1  0  0  0  0
M  END
$$$$
