
  -OEChem-12122420533D

 50 51  0     1  0  0  0  0  0999 V2000
   -0.9938   -6.9190    2.1796 N   0  0  0  0  0  0  0  0  0  0  0  0
   -2.3109   -7.6841    1.8839 S   0  0  2  0  0  0  0  0  0  0  0  0
   -2.5272   -7.9824    0.4536 O   0  0  0  0  0  0  0  0  0  0  0  0
   -3.7492   -6.8198    2.5640 C   0  0  0  0  0  0  0  0  0  0  0  0
   -4.4127   -7.2896    3.6991 C   0  0  0  0  0  0  0  0  0  0  0  0
   -4.1020   -8.2093    4.1826 H   0  0  0  0  0  0  0  0  0  0  0  0
   -5.4928   -6.6017    4.2498 C   0  0  0  0  0  0  0  0  0  0  0  0
   -5.9993   -6.9748    5.1267 H   0  0  0  0  0  0  0  0  0  0  0  0
   -5.9258   -5.4107    3.6435 C   0  0  0  0  0  0  0  0  0  0  0  0
   -7.0029   -4.6438    4.0886 N   0  0  0  0  0  0  0  0  0  0  0  0
   -7.8228   -4.7576    5.1955 C   0  0  0  0  0  0  0  0  0  0  0  0
   -8.8021   -3.8320    5.2301 N   0  0  0  0  0  0  0  0  0  0  0  0
   -9.6218   -3.9096    6.2882 C   0  0  0  0  0  0  0  0  0  0  0  0
  -10.4237   -3.1761    6.3417 H   0  0  0  0  0  0  0  0  0  0  0  0
   -9.4802   -4.8646    7.2800 C   0  0  0  0  0  0  0  0  0  0  0  0
  -10.6800   -4.9257    8.7711 Br  0  0  0  0  0  0  0  0  0  0  0  0
   -8.4109   -5.7917    7.1607 C   0  0  0  0  0  0  0  0  0  0  0  0
   -8.1664   -6.7392    8.0916 N   0  0  0  0  0  0  0  0  0  0  0  0
   -7.1228   -7.7549    7.9659 C   0  0  2  0  0  0  0  0  0  0  0  0
   -7.5996   -8.9155    7.0815 C   0  0  0  0  0  0  0  0  0  0  0  0
   -6.7827   -9.6051    6.8500 H   0  0  0  0  0  0  0  0  0  0  0  0
   -8.4005   -9.4733    7.5743 H   0  0  0  0  0  0  0  0  0  0  0  0
   -7.9787   -8.5167    6.1372 H   0  0  0  0  0  0  0  0  0  0  0  0
   -6.6962   -8.1696    9.3948 C   0  0  0  0  0  0  0  0  0  0  0  0
   -7.9279   -8.5623   10.0453 O   0  0  0  0  0  0  0  0  0  0  0  0
   -7.7416   -8.7174   10.9847 H   0  0  0  0  0  0  0  0  0  0  0  0
   -6.0728   -6.9778   10.1341 C   0  0  0  0  0  0  0  0  0  0  0  0
   -5.8288   -7.2555   11.1665 H   0  0  0  0  0  0  0  0  0  0  0  0
   -6.7575   -6.1271   10.1567 H   0  0  0  0  0  0  0  0  0  0  0  0
   -5.1436   -6.6609    9.6497 H   0  0  0  0  0  0  0  0  0  0  0  0
   -5.7208   -9.3517    9.3704 C   0  0  0  0  0  0  0  0  0  0  0  0
   -5.3628   -9.5649   10.3838 H   0  0  0  0  0  0  0  0  0  0  0  0
   -6.2058  -10.2515    8.9872 H   0  0  0  0  0  0  0  0  0  0  0  0
   -4.8453   -9.1313    8.7500 H   0  0  0  0  0  0  0  0  0  0  0  0
   -6.2637   -7.2750    7.4910 H   0  0  0  0  0  0  0  0  0  0  0  0
   -8.8485   -6.8843    8.8279 H   0  0  0  0  0  0  0  0  0  0  0  0
   -7.5907   -5.7199    6.0933 N   0  0  0  0  0  0  0  0  0  0  0  0
   -7.2679   -3.8574    3.5074 H   0  0  0  0  0  0  0  0  0  0  0  0
   -5.2480   -4.9494    2.4955 C   0  0  0  0  0  0  0  0  0  0  0  0
   -5.5819   -4.0269    2.0239 H   0  0  0  0  0  0  0  0  0  0  0  0
   -4.1654   -5.6238    1.9350 C   0  0  0  0  0  0  0  0  0  0  0  0
   -3.4941   -5.0683    0.7005 C   0  0  0  0  0  0  0  0  0  0  0  0
   -3.6154   -5.7512   -0.1445 H   0  0  0  0  0  0  0  0  0  0  0  0
   -3.9205   -4.0967    0.4398 H   0  0  0  0  0  0  0  0  0  0  0  0
   -2.4177   -4.9529    0.8532 H   0  0  0  0  0  0  0  0  0  0  0  0
   -2.3526   -9.3119    2.7069 C   0  0  0  0  0  0  0  0  0  0  0  0
   -3.3012   -9.8151    2.5119 H   0  0  0  0  0  0  0  0  0  0  0  0
   -1.5330   -9.8495    2.2261 H   0  0  0  0  0  0  0  0  0  0  0  0
   -2.1513   -9.2133    3.7748 H   0  0  0  0  0  0  0  0  0  0  0  0
   -1.0249   -6.4773    3.1003 H   0  0  0  0  0  0  0  0  0  0  0  0
  1  2  2  0  0  0  0
  1 50  1  0  0  0  0
  2  3  2  0  0  0  0
  2  4  1  0  0  0  0
  2 46  1  0  0  0  0
  4  5  2  0  0  0  0
  4 41  1  0  0  0  0
  5  6  1  0  0  0  0
  5  7  1  0  0  0  0
  7  8  1  0  0  0  0
  7  9  2  0  0  0  0
  9 10  1  0  0  0  0
  9 39  1  0  0  0  0
 10 11  1  0  0  0  0
 10 38  1  0  0  0  0
 11 12  1  0  0  0  0
 11 37  2  0  0  0  0
 12 13  2  0  0  0  0
 13 14  1  0  0  0  0
 13 15  1  0  0  0  0
 15 16  1  0  0  0  0
 15 17  2  0  0  0  0
 17 18  1  0  0  0  0
 17 37  1  0  0  0  0
 18 19  1  0  0  0  0
 18 36  1  0  0  0  0
 19 20  1  0  0  0  0
 19 24  1  0  0  0  0
 19 35  1  0  0  0  0
 20 21  1  0  0  0  0
 20 22  1  0  0  0  0
 20 23  1  0  0  0  0
 24 25  1  0  0  0  0
 24 27  1  0  0  0  0
 24 31  1  0  0  0  0
 25 26  1  0  0  0  0
 27 28  1  0  0  0  0
 27 29  1  0  0  0  0
 27 30  1  0  0  0  0
 31 32  1  0  0  0  0
 31 33  1  0  0  0  0
 31 34  1  0  0  0  0
 39 40  1  0  0  0  0
 39 41  2  0  0  0  0
 41 42  1  0  0  0  0
 42 43  1  0  0  0  0
 42 44  1  0  0  0  0
 42 45  1  0  0  0  0
 46 47  1  0  0  0  0
 46 48  1  0  0  0  0
 46 49  1  0  0  0  0
M  END
$$$$
