
  -OEChem-12102412493D

 14 14  0     0  0  0  0  0  0999 V2000
   -4.2887    2.0975    0.3211 N   0  0  0  0  0  0  0  0  0  0  0  0
   -3.1547    1.3232    0.3126 C   0  0  0  0  0  0  0  0  0  0  0  0
   -3.1754    0.0194    0.4754 N   0  0  0  0  0  0  0  0  0  0  0  0
   -1.9299   -0.5342    0.3412 N   0  0  0  0  0  0  0  0  0  0  0  0
   -1.0068    0.3390    0.0903 C   0  0  0  0  0  0  0  0  0  0  0  0
    0.7337   -0.1274   -0.0490 S   0  0  0  0  0  0  0  0  0  0  0  0
    1.2030    0.3792   -1.3336 O   0  0  0  0  0  0  0  0  0  0  0  0
    1.3731    0.2315    1.2106 O   0  0  0  0  0  0  0  0  0  0  0  0
    0.7014   -1.7912   -0.1409 N   0  0  0  0  0  0  0  0  0  0  0  0
    0.2805   -2.2029    0.6916 H   0  0  0  0  0  0  0  0  0  0  0  0
    0.2294   -2.1084   -0.9867 H   0  0  0  0  0  0  0  0  0  0  0  0
   -1.5646    1.9943   -0.0370 S   0  0  0  0  0  0  0  0  0  0  0  0
   -4.1957    3.0487    0.6553 H   0  0  0  0  0  0  0  0  0  0  0  0
   -5.0990    1.6093    0.6896 H   0  0  0  0  0  0  0  0  0  0  0  0
  1  2  1  0  0  0  0
  1 13  1  0  0  0  0
  1 14  1  0  0  0  0
  2  3  2  0  0  0  0
  2 12  1  0  0  0  0
  3  4  1  0  0  0  0
  4  5  2  0  0  0  0
  5  6  1  0  0  0  0
  5 12  1  0  0  0  0
  6  7  2  0  0  0  0
  6  8  2  0  0  0  0
  6  9  1  0  0  0  0
  9 10  1  0  0  0  0
  9 11  1  0  0  0  0
M  END
$$$$
