8
0 1 C3H3NS
C                    -0.097537721216    -3.259034765426     1.241754013128
H                    -0.002917316920    -4.336873825044     1.321523455890
N                    -0.553119256764    -2.493035036418     2.193678260650
C                    -0.552855112667    -1.172785426493     1.794190663040
H                    -0.905680408893    -0.410251485417     2.480233022584
C                    -0.092544346847    -0.934201229595     0.526582713016
H                    -0.002421144492     0.010676393647     0.007211621735
S                     0.369179158081    -2.427515843804    -0.221601026921
