
  -OEChem-12122420533D

 14 15  0     0  0  0  0  0  0999 V2000
    3.4527   -4.3752    0.5012 C   0  0  0  0  0  0  0  0  0  0  0  0
    4.1127   -5.2368    0.4868 H   0  0  0  0  0  0  0  0  0  0  0  0
    3.0980   -3.7630    1.5918 N   0  0  0  0  0  0  0  0  0  0  0  0
    2.2557   -2.7102    1.2812 C   0  0  0  0  0  0  0  0  0  0  0  0
    1.9597   -2.5206   -0.0755 C   0  0  0  0  0  0  0  0  0  0  0  0
    1.1585   -1.5637   -0.5625 N   0  0  0  0  0  0  0  0  0  0  0  0
    0.6420   -0.7796    0.3903 C   0  0  0  0  0  0  0  0  0  0  0  0
   -0.0220    0.0120    0.0488 H   0  0  0  0  0  0  0  0  0  0  0  0
    0.8348   -0.8428    1.7186 N   0  0  0  0  0  0  0  0  0  0  0  0
    1.6485   -1.8028    2.1870 C   0  0  0  0  0  0  0  0  0  0  0  0
    1.8985   -1.8670    3.5222 N   0  0  0  0  0  0  0  0  0  0  0  0
    2.3556   -2.6924    3.8866 H   0  0  0  0  0  0  0  0  0  0  0  0
    1.3032   -1.3269    4.1363 H   0  0  0  0  0  0  0  0  0  0  0  0
    2.8048   -3.7443   -1.0120 S   0  0  0  0  0  0  0  0  0  0  0  0
  1  2  1  0  0  0  0
  1  3  2  0  0  0  0
  1 14  1  0  0  0  0
  3  4  1  0  0  0  0
  4  5  2  0  0  0  0
  4 10  1  0  0  0  0
  5  6  1  0  0  0  0
  5 14  1  0  0  0  0
  6  7  2  0  0  0  0
  7  8  1  0  0  0  0
  7  9  1  0  0  0  0
  9 10  2  0  0  0  0
 10 11  1  0  0  0  0
 11 12  1  0  0  0  0
 11 13  1  0  0  0  0
M  END
$$$$
