27   
torsion grid (-165,)
C       -2.0710151058   -3.2800389322   -1.5423937586
C        5.8543026504    0.9754155462    0.2686088388
C       -1.2056519515   -3.8326977468   -0.5940716781
C       -1.9305520268   -1.9365721796   -1.9117802008
C        4.7731384048    1.1021014119    1.1439317909
C        5.6602184627    0.3142472934   -0.9519842249
C       -0.2025300042   -3.0441543539   -0.0184469959
C       -0.9299564773   -1.1529094992   -1.3323915234
C        3.5165627143    0.5809141736    0.8188263261
C        4.4129947728   -0.2055405622   -1.2899226709
C       -0.0566396625   -1.6985425921   -0.3785473835
C        3.3180855460   -0.0800791279   -0.4088942148
C        1.0433002245   -0.8508715147    0.2175734646
N        2.0660816608   -0.5712472966   -0.7934970314
H       -2.8513785621   -3.8899660560   -1.9902107035
H        6.8280687566    1.3801605249    0.5292835702
H       -1.3095448900   -4.8746884218   -0.3024459749
H       -2.6022922348   -1.5013535205   -2.6473925109
H        4.9032352039    1.6103289256    2.0964854951
H        6.4885780644    0.2020738270   -1.6474274867
H        0.4710054110   -3.4780340200    0.7174845139
H       -0.8184579923   -0.1101277679   -1.6201947415
H        2.6952107523    0.6957788924    1.5185279828
H        4.2740444262   -0.7110905292   -2.2439390157
H        1.4735715000   -1.3641683397    1.0909843777
H        0.6300351858    0.0998667042    0.5760582689
H        2.1248011697   -1.3026612946   -1.4931079447
27   
torsion grid (-150,)
C       -1.9100305928   -3.4044356302   -1.5207678047
C        5.8870111150    0.6977983650    0.3661682246
C       -0.8438008552   -3.8410903122   -0.7267016168
C       -2.0743952359   -2.0379755351   -1.7711291951
C        4.7906363637    0.9995553987    1.1780703939
C        5.6646931164    0.0391593941   -0.8507660973
C        0.0525146680   -2.9136571264   -0.1871898607
C       -1.1760704216   -1.1136488259   -1.2286008114
C        3.4917463721    0.6529200099    0.7936853550
C        4.3756364863   -0.3132396712   -1.2444613266
C       -0.1058264409   -1.5414137647   -0.4305501942
C        3.2655932781   -0.0138931349   -0.4265164457
C        0.8959112000   -0.5493066410    0.1123521219
N        1.9775074924   -0.3390564229   -0.8595580274
H       -2.6094328992   -4.1239372565   -1.9386917460
H        6.8934020598    0.9696965534    0.6714448477
H       -0.7132924409   -4.9012523504   -0.5251829549
H       -2.9017606406   -1.6927107946   -2.3858513100
H        4.9415217466    1.5147866628    2.1237944894
H        6.5035818471   -0.2059924001   -1.4977825745
H        0.8802747119   -3.2551653384    0.4309825267
H       -1.3044122891   -0.0515095911   -1.4247219980
H        2.6566153394    0.9159799018    1.4352365746
H        4.2167501291   -0.8248682016   -2.1921605549
H        1.3046258280   -0.9281236139    1.0594699062
H        0.4036459993    0.4060590474    0.3316792533
H        1.9706522609   -1.0313006708   -1.5994374003
27   
torsion grid (-135,)
C       -1.7514721508   -3.4833607231   -1.4084668701
C        5.8874203966    0.4113122531    0.5000514718
C       -0.5090586501   -3.7585148120   -0.8226571987
C       -2.1752877131   -2.1586100847   -1.5430899335
C        4.7976696897    0.8564336328    1.2535056425
C        5.6452638247   -0.2143761176   -0.7299954750
C        0.3005071225   -2.7125096982   -0.3754631165
C       -1.3599950154   -1.1125785386   -1.0941675373
C        3.4872300404    0.6841009092    0.7987854379
C        4.3434488908   -0.3998099408   -1.1909328080
C       -0.1182400069   -1.3781089789   -0.5046862122
C        3.2392193822    0.0432664284   -0.4318362536
C        0.7855469693   -0.2562005487   -0.0426826612
N        1.9466163282   -0.1198404875   -0.9303235623
H       -2.3831408749   -4.2969927622   -1.7555571184
H        6.9030427637    0.5512017516    0.8589486481
H       -0.1760413404   -4.7873129403   -0.7113890222
H       -3.1374538949   -1.9378732517   -1.9981989034
H        4.9640780628    1.3542377050    2.2059518603
H        6.4776759397   -0.5685185096   -1.3334700236
H        1.2646613490   -2.9275374923    0.0809861535
H       -1.6909535188   -0.0821961966   -1.2039269132
H        2.6621633339    1.0695398839    1.3898330958
H        4.1698866187   -0.8941978777   -2.1452755070
H        1.1332526931   -0.4736193718    0.9743643515
H        0.2227877440    0.6844990939    0.0031930553
H        1.8986989772   -0.7270510801   -1.7391482857
27   
torsion grid (-120,)
C       -1.7738030323   -3.5896079657   -0.9459079634
C        5.6414968979    0.1728510792    0.8433851336
C       -0.3828131233   -3.7153713485   -1.0207420244
C       -2.3467639264   -2.3170637072   -0.8430902972
C        4.4835924474   -0.3248048127    1.4498171689
C        5.5904136331    0.5408953481   -0.5063101460
C        0.4310776199   -2.5780873305   -0.9910364606
C       -1.5308181552   -1.1824511874   -0.8133511200
C        3.2933652707   -0.4562033507    0.7310229202
C        4.4040576047    0.4276521182   -1.2308919582
C       -0.1359585533   -1.3024037653   -0.8843509587
C        3.2336847337   -0.0695335098   -0.6230866868
C        0.7385192128   -0.0611347531   -0.7993208859
N        2.0678029843   -0.2298989014   -1.3775820983
H       -2.4061933477   -4.4733553396   -0.9730689786
H        6.5647232307    0.2675451556    1.4077747380
H        0.0696829071   -4.7004749018   -1.1051207118
H       -3.4273581053   -2.2085115010   -0.7920360631
H        4.5060105848   -0.6294092432    2.4934555164
H        6.4786148323    0.9294675811   -0.9987379893
H        1.5109415131   -2.6693599481   -1.0643939901
H       -1.9840698984   -0.1951851304   -0.7377914089
H        2.4200471012   -0.8836819940    1.2150093869
H        4.3760329617    0.7295419913   -2.2766323299
H        0.8432213903    0.2397835824    0.2479011026
H        0.2244654262    0.7721773018   -1.2956229573
H        2.1482608443    0.1265810780   -2.3211545540
27   
torsion grid (-105,)
C       -1.5972625137   -3.5933974461   -0.7397890635
C        5.4550454247    0.0044031777    0.9467918746
C       -0.2462385337   -3.6564434708   -1.0918674845
C       -2.1910877698   -2.3471084419   -0.5048867916
C        4.2226212921   -0.4476896673    1.4283365165
C        5.5468436687    0.4220950854   -0.3866422073
C        0.5091733492   -2.4837659854   -1.2106629687
C       -1.4343846257   -1.1790138692   -0.6219468656
C        3.0963350899   -0.4852317794    0.6025307663
C        4.4280360212    0.3979782309   -1.2186641757
C       -0.0786613986   -1.2363006150   -0.9780686767
C        3.1834717590   -0.0522514076   -0.7351922969
C        0.7233104799    0.0537885827   -1.0788553873
N        2.0790518419   -0.1167171513   -1.5922379602
H       -2.1836854697   -4.5041964119   -0.6491972906
H        6.3269919933    0.0278362665    1.5941746430
H        0.2233698177   -4.6199762051   -1.2744985417
H       -3.2417745779   -2.2867103617   -0.2318716423
H        4.1337776719   -0.7868805435    2.4576375854
H        6.4955840267    0.7772164341   -0.7817739093
H        1.5577263666   -2.5265974989   -1.4890762600
H       -1.9028348834   -0.2133860747   -0.4364528432
H        2.1588522839   -0.8737137400    0.9888494770
H        4.5115925207    0.7331007451   -2.2512705596
H        0.7540186334    0.5432525733   -0.0972088006
H        0.1885278588    0.7438170916   -1.7419707158
H        2.2384340857    0.3490264443   -2.4759029359
27   
torsion grid (-90,)
C       -1.3685450692   -3.5831421187   -0.5583216352
C        5.2683046449   -0.1366823090    1.0612643302
C       -0.1298439371   -3.6000922786   -1.2062405342
C       -1.9164982813   -2.3609949833   -0.1510544868
C        3.9732632958   -0.5013231641    1.4397709089
C        5.4955814150    0.2783182617   -0.2571612699
C        0.5551706389   -2.4048706851   -1.4512552133
C       -1.2279474363   -1.1695154505   -0.3926926608
C        2.9148426104   -0.4550983758    0.5279210818
C        4.4483778789    0.3308636113   -1.1755777417
C        0.0105740719   -1.1805120652   -1.0501504393
C        3.1405990120   -0.0322089636   -0.7959679873
C        0.7229521951    0.1367779948   -1.3245071005
N        2.1110787315   -0.0093265684   -1.7463810745
H       -1.8998337977   -4.5118579401   -0.3662800133
H        6.0852897889   -0.1762427029    1.7760977881
H        0.3077012708   -4.5454058755   -1.5180262487
H       -2.8762246916   -2.3373184571    0.3592705637
H        3.7782505502   -0.8326973308    2.4569022937
H        6.4951695910    0.5672443144   -0.5729165597
H        1.5224274843   -2.4120133233   -1.9442658871
H       -1.6558217136   -0.2233970862   -0.0644105770
H        1.9241657628   -0.7682597711    0.8403369776
H        4.6377183317    0.6561088476   -2.1973511483
H        0.6452503377    0.7840721736   -0.4388464387
H        0.1903780158    0.6518898659   -2.1321025028
H        2.3440033200    0.5455556372   -2.5596135106
27   
torsion grid (-75,)
C       -1.1647002448   -3.5838438342   -0.4329077263
C        5.0961038187   -0.3050704769    1.0846821205
C       -0.0147206781   -3.5510468859   -1.2289197253
C       -1.7151498557   -2.3849592548    0.0326688345
C        3.7637401777   -0.5554390164    1.4219013830
C        5.3969938380    0.1081422209   -0.2199387597
C        0.5780100808   -2.3296251942   -1.5618830642
C       -1.1159654738   -1.1657668967   -0.2982240985
C        2.7378638431   -0.3987807705    0.4846329783
C        4.3850800188    0.2637808852   -1.1645656804
C        0.0313781342   -1.1261721592   -1.1011665304
C        3.0382982355    0.0135837620   -0.8277492964
C        0.6402345156    0.2155578709   -1.4821691427
N        2.0551413506    0.1551823231   -1.8128492459
H       -1.6231742103   -4.5340828855   -0.1712669131
H        5.8856375456   -0.4290597560    1.8204002819
H        0.4253035662   -4.4789352276   -1.5861040449
H       -2.6042592182   -2.3994190062    0.6582182433
H        3.5104273278   -0.8787642444    2.4287628351
H        6.4268387529    0.3100026837   -0.5047743414
H        1.4809157811   -2.3002092226   -2.1644292401
H       -1.5412855186   -0.2369344870    0.0782461004
H        1.7156609827   -0.6145714794    0.7733698555
H        4.6316066418    0.5792084608   -2.1771726741
H        0.4439894274    0.9379030892   -0.6737014604
H        0.1227320229    0.5926361579   -2.3713548549
H        2.3305742735    0.7552876268   -2.5784726668
27   
torsion grid (-60,)
C       -0.8780877337   -3.6468099320   -0.6052045294
C        5.4652303503   -0.7916825568   -0.4547527225
C       -1.2692873580   -2.9230757399    0.5269210004
C       -0.0341234262   -3.0488472456   -1.5456505850
C        4.4893387034   -1.0778328952    0.5039505924
C        5.1322427381    0.0489378428   -1.5246066573
C       -0.8174317378   -1.6135290878    0.7097428948
C        0.4123394813   -1.7361613661   -1.3604093347
C        3.2021761943   -0.5426837977    0.4065034345
C        3.8541024041    0.5943190208   -1.6297640435
C        0.0228029287   -1.0046957521   -0.2329979431
C        2.8674334441    0.3081068851   -0.6640882050
C        0.4611434158    0.4410820802   -0.0166359292
N        1.6078680346    0.9042473180   -0.7764940225
H       -1.2217390710   -4.6680857427   -0.7479937445
H        6.4616824263   -1.2166525191   -0.3746040925
H       -1.9199433943   -3.3800839533    1.2684401505
H        0.2850339438   -3.6070019201   -2.4223230977
H        4.7242734985   -1.7354984605    1.3374385722
H        5.8744004411    0.2844592150   -2.2836425786
H       -1.1190668174   -1.0592918698    1.5973590462
H        1.0854735315   -1.2906145701   -2.0868739859
H        2.4599266790   -0.8039920707    1.1528017323
H        3.6114423360    1.2540350737   -2.4613532720
H        0.6558517839    0.5978004989    1.0510362555
H       -0.3722076818    1.1075348765   -0.2651307475
H        1.3914288244    1.2325672010   -1.7086243493
27   
torsion grid (-45,)
C       -0.6286199331   -3.6311235795   -0.5944845157
C        5.2999779172   -0.9708753433   -0.4326171551
C       -0.9539778683   -2.9586724114    0.5875458806
C        0.0377926458   -2.9453873540   -1.6159548308
C        4.3196932210   -1.1517634919    0.5479615943
C        5.0255689257   -0.1232495900   -1.5126057807
C       -0.6127150622   -1.6112395232    0.7424264033
C        0.3714271136   -1.5979694521   -1.4578806813
C        3.0850730294   -0.5047640648    0.4607435377
C        3.7957848794    0.5268960232   -1.6104477788
C        0.0485011658   -0.9161758402   -0.2776559805
C        2.8055001785    0.3455568622   -0.6253525972
C        0.3713713542    0.5620922292   -0.0990702767
N        1.5985175792    1.0523944841   -0.7220735440
H       -0.8842322907   -4.6806388051   -0.7156146927
H        6.2563224406   -1.4808792944   -0.3595444499
H       -1.4648739592   -3.4836697891    1.3908898786
H        0.3048828783   -3.4631346123   -2.5338225088
H        4.5121990319   -1.8089696679    1.3925841505
H        5.7724741791    0.0318550764   -2.2874990263
H       -0.8577490351   -1.0971534727    1.6703797227
H        0.9084315117   -1.0815515557   -2.2490438718
H        2.3398073839   -0.6708515819    1.2310352858
H        3.5955212300    1.1844356443   -2.4551757419
H        0.4029884067    0.7823684928    0.9752444367
H       -0.4458872950    1.1688053000   -0.5031157360
H        1.4481871602    1.4251349944   -1.6514044439
27   
torsion grid (-30,)
C       -0.4184695336   -3.6392519479   -0.5587490781
C        5.1851244698   -1.1124611141   -0.4685030325
C       -0.7485992502   -2.9718790817    0.6239876110
C        0.1543020950   -2.9247408278   -1.6177364064
C        4.2166385415   -1.2561332402    0.5308712183
C        4.9408839135   -0.2250651957   -1.5225667109
C       -0.5033634174   -1.5995587247    0.7453470329
C        0.3912518065   -1.5548950674   -1.4926230596
C        3.0245538893   -0.5315707323    0.4869243950
C        3.7474359367    0.4957856791   -1.5807669276
C        0.0658085679   -0.8770035078   -0.3092662912
C        2.7697344350    0.3523628008   -0.5782107607
C        0.3005328035    0.6183909217   -0.1717799398
N        1.6026538717    1.1320020939   -0.6266237391
H       -0.5992735007   -4.7068792795   -0.6536305944
H        6.1105437182   -1.6799582059   -0.4274260696
H       -1.1886948488   -3.5184869613    1.4543273516
H        0.4221104157   -3.4378091859   -2.5379740575
H        4.3888437493   -1.9395448273    1.3588971897
H        5.6794059627   -0.0969852338   -2.3103436118
H       -0.7501140147   -1.0882314443    1.6740592453
H        0.8546244130   -1.0119557829   -2.3126315200
H        2.2914447991   -0.6559528462    1.2766528962
H        3.5663497171    1.1768199270   -2.4112180335
H        0.1536224515    0.8912976902    0.8809412212
H       -0.4626050456    1.1665689336   -0.7338318246
H        1.5253942423    1.6124620496   -1.5148116982
27   
torsion grid (-15,)
C       -0.3210245930   -3.6350644310   -0.4844582969
C        5.1227139763   -1.1890585946   -0.5473159928
C       -0.7055440747   -2.9383439154    0.6641008999
C        0.2526932309   -2.9392517877   -1.5557892393
C        4.1591110413   -1.3728697594    0.4512043829
C        4.8982684630   -0.2215209519   -1.5321134011
C       -0.5119268752   -1.5542945942    0.7407831123
C        0.4384522652   -1.5588136035   -1.4760261996
C        2.9926959819   -0.6082236230    0.4746963427
C        3.7247078390    0.5350391291   -1.5275825435
C        0.0605024181   -0.8512475216   -0.3250478162
C        2.7528302235    0.3530768619   -0.5258378910
C        0.2487134108    0.6505967473   -0.2372224124
N        1.6088021541    1.1691267540   -0.5048772399
H       -0.4625653097   -4.7111266887   -0.5445679491
H        6.0304114345   -1.7859399233   -0.5561733292
H       -1.1492000093   -3.4699062497    1.5022342248
H        0.5604451546   -3.4751931851   -2.4500515390
H        4.3187860842   -2.1163097964    1.2284524671
H        5.6333937819   -0.0601747304   -2.3169899452
H       -0.8008455936   -1.0184998529    1.6428984071
H        0.9017727108   -1.0283783161   -2.3041925987
H        2.2669860115   -0.7561715909    1.2670584265
H        3.5546062112    1.2733589056   -2.3101047518
H       -0.0707657677    0.9762907312    0.7606978817
H       -0.4242238807    1.1418252105   -0.9483868782
H        1.6064505964    1.7948044459   -1.3011145520
27   
torsion grid (0,)
C       -1.2590151869   -1.1483753501   -1.7978641962
C        4.2640316367    0.9014149341   -1.7030182988
C       -0.0961678190   -1.8648315246   -2.1070905028
C       -1.5334082237   -0.8179879454   -0.4681396730
C        3.0599311057    1.1615273141   -1.0375810412
C        4.9822105634   -0.2521595398   -1.3734209451
C        0.7831272060   -2.2444280654   -1.0927527821
C       -0.6452679910   -1.1977460916    0.5447685337
C        2.5783796215    0.2932356243   -0.0582710153
C        4.4938621895   -1.1398617514   -0.4117468293
C        0.5206604900   -1.9114670708    0.2448810089
C        3.2845071670   -0.8828024539    0.2611821595
C        1.4743733622   -2.3207064997    1.3448846565
N        2.8473325208   -1.7555275957    1.2753890411
H       -1.9433267034   -0.8498353328   -2.5879200993
H        4.6365175280    1.5865624552   -2.4594874090
H        0.1264710727   -2.1215222713   -3.1395860028
H       -2.4335857615   -0.2620687800   -0.2182677504
H        2.4920702258    2.0581658259   -1.2740272565
H        5.9211207562   -0.4732702365   -1.8754764692
H        1.6933159775   -2.7843212101   -1.3419473579
H       -0.8568754217   -0.9275569921    1.5772964511
H        1.6557940165    0.5253010937    0.4619945021
H        5.0521075227   -2.0460080959   -0.1801679014
H        1.5667297242   -3.4135028224    1.3390885944
H        1.0284569783   -2.0510656542    2.3096137917
H        3.5323485573   -2.4866379836    1.4258629411
27   
torsion grid (15,)
C       -1.2759528159   -1.2394835365   -1.8287987582
C        4.2719254895    0.9451388890   -1.6367702122
C       -0.1049702216   -1.9570996621   -2.1023727503
C       -1.5561088306   -0.8502915523   -0.5163301694
C        3.1069677259    1.2022100877   -0.9046468997
C        4.9553692665   -0.2554191815   -1.4176789616
C        0.7755506583   -2.2812751138   -1.0698398904
C       -0.6665430528   -1.1735437327    0.5147373830
C        2.6294196684    0.2844639935    0.0310718623
C        4.4736521498   -1.1881335505   -0.4970287322
C        0.5056408320   -1.8904375684    0.2502228888
C        3.3023582300   -0.9343993857    0.2411373765
C        1.4531617594   -2.2501842434    1.3776977870
N        2.8703530789   -1.8586204923    1.2077037197
H       -1.9606686555   -0.9833863891   -2.6332455032
H        4.6402759192    1.6663266539   -2.3609692864
H        0.1232338946   -2.2577171498   -3.1217880587
H       -2.4611893329   -0.2904564227   -0.2943678942
H        2.5648593555    2.1324576337   -1.0566259438
H        5.8633285510   -0.4760265354   -1.9739211314
H        1.6919526001   -2.8221077914   -1.2926329261
H       -0.8828587213   -0.8564370143    1.5330766307
H        1.7337422642    0.5113924856    0.5990426154
H        5.0065772530   -2.1264289770   -0.3488242986
H        1.4397167053   -3.3348515099    1.5299009588
H        1.0649698937   -1.8068853235    2.3033472117
H        3.4732120885   -2.6722599239    1.2127507791
27   
torsion grid (30,)
C       -1.3300607465   -1.3658524991   -1.8259960769
C        4.3391394674    0.9951540890   -1.5428915714
C       -0.1522851996   -2.0801024862   -2.0764944184
C       -1.5957553694   -0.9069126831   -0.5329365017
C        3.1934234233    1.2399555150   -0.7781922527
C        4.9847267904   -0.2398338225   -1.4156152128
C        0.7484287705   -2.3335231135   -1.0407539772
C       -0.6861706007   -1.1592307274    0.5000788621
C        2.6948234581    0.2761789940    0.0995955909
C        4.4876766212   -1.2137152946   -0.5485511136
C        0.4918597557   -1.8751010127    0.2591668886
C        3.3339911842   -0.9718286719    0.2209379415
C        1.4563059293   -2.1644898204    1.3977151004
N        2.8866997598   -1.9441929453    1.1301439093
H       -2.0298159823   -1.1642890847   -2.6329885559
H        4.7210726484    1.7503609316   -2.2240126891
H        0.0662222416   -2.4331198792   -3.0811949277
H       -2.5047384953   -0.3465422748   -0.3288224690
H        2.6789188783    2.1941963102   -0.8620984484
H        5.8769709458   -0.4520725352   -1.9997982780
H        1.6698976211   -2.8716940668   -1.2485655457
H       -0.8922348207   -0.7873296879    1.5021145197
H        1.8081424475    0.4916498999    0.6860795928
H        4.9948415524   -2.1739685061   -0.4651912616
H        1.3566861285   -3.2087129246    1.7114907646
H        1.1544641637   -1.5598732756    2.2623598543
H        3.3810523582   -2.8180582576    0.9972591189
27   
torsion grid (45,)
C       -1.4767974648   -1.5167253406   -1.7755051413
C        4.4967618637    1.0342229514   -1.4502404101
C       -0.2514470186   -2.1305726568   -2.0571151181
C       -1.7390400372   -1.0662907147   -0.4779172591
C        3.3263938134    1.2719019591   -0.7228528157
C        5.1053995149   -0.2230988684   -1.3565767899
C        0.7007237042   -2.2960983200   -1.0481865727
C       -0.7801715396   -1.2296733425    0.5269637103
C        2.7656185528    0.2796688224    0.0842193680
C        4.5534569787   -1.2217418704   -0.5548253296
C        0.4460047670   -1.8487421296    0.2544988153
C        3.3738404454   -0.9861589284    0.1779804786
C        1.4559535713   -2.0509226758    1.3774017971
N        2.8698934249   -1.9902834019    1.0161665730
H       -2.2160137786   -1.3836512053   -2.5612180289
H        4.9246306429    1.8099700615   -2.0788744087
H       -0.0342082904   -2.4736562611   -3.0655730714
H       -2.6848485841   -0.5810968085   -0.2498372245
H        2.8363684611    2.2405956794   -0.7851462181
H        6.0156169838   -0.4310557648   -1.9139306606
H        1.6575882871   -2.7544229940   -1.2832061791
H       -0.9859297735   -0.8651849380    1.5320860480
H        1.8519542564    0.4887386897    0.6300217923
H        5.0376159254   -2.1951248046   -0.4903725561
H        1.2961242945   -3.0280596936    1.8452044741
H        1.2545623618   -1.3093942756    2.1606740187
H        3.2645713311   -2.8983946185    0.8049133788
27   
torsion grid (60,)
C       -1.6718093902   -1.6574644808   -1.7212361027
C        4.7269593851    1.0531098576   -1.3752130566
C       -0.3894031418   -2.0892368098   -2.0723832829
C       -1.9362319345   -1.2909861425   -0.3967288912
C        3.5087977160    1.3118447418   -0.7407742645
C        5.2849775689   -0.2270254056   -1.2657106280
C        0.6208317093   -2.1597288977   -1.1073942900
C       -0.9227632233   -1.3591306997    0.5628357179
C        2.8497246664    0.3199305614   -0.0097515824
C        4.6409214413   -1.2230546902   -0.5341230440
C        0.3635109401   -1.7986276772    0.2197118432
C        3.4121577122   -0.9653733079    0.1075985231
C        1.4314295732   -1.8977844743    1.3054973035
N        2.8130079755   -1.9742518407    0.8673576550
H       -2.4554604339   -1.5994480844   -2.4722410455
H        5.2294879566    1.8284424367   -1.9464043821
H       -0.1709804377   -2.3644849599   -3.1012123469
H       -2.9280452061   -0.9471960919   -0.1135759077
H        3.0539943407    2.2962950046   -0.8209722667
H        6.2310635846   -0.4524119653   -1.7520653426
H        1.6187856273   -2.4753246352   -1.3969961920
H       -1.1333896495   -1.0642082119    1.5898130427
H        1.8934896774    0.5448483812    0.4498213360
H        5.0903547634   -2.2111746541   -0.4488783845
H        1.2424603118   -2.7910903709    1.9110458880
H        1.3223510420   -1.0484673277    1.9904763664
H        3.1324307173   -2.9062021255    0.6375249536
27   
torsion grid (75,)
C       -1.9870423767   -1.6264378419   -1.4709105800
C        4.1981945673    1.8284471940   -0.0413812663
C       -1.8833172456   -2.0206716149   -0.1326492219
C       -0.8388619278   -1.5881611895   -2.2692836513
C        2.9282939776    1.4231787638    0.3765385686
C        5.0620379193    0.8741647789   -0.5949169170
C       -0.6387918833   -2.3727867184    0.3984427533
C        0.4030197128   -1.9461959022   -1.7367870123
C        2.5149255694    0.0930880871    0.2521120673
C        4.6615381484   -0.4533821006   -0.7286582760
C        0.5126905256   -2.3432870839   -0.3989902770
C        3.3806258943   -0.8666404876   -0.3065764835
C        1.8489790793   -2.7712130725    0.1901297999
N        3.0059258831   -2.2028796902   -0.4833413255
H       -2.9518651710   -1.3445052259   -1.8847325777
H        4.5104171176    2.8639677038    0.0599850627
H       -2.7681817920   -2.0465156880    0.4985090473
H       -0.9094644920   -1.2727933422   -3.3074168677
H        2.2418708271    2.1484063045    0.8070526888
H        6.0558943864    1.1656298028   -0.9261528098
H       -0.5622407481   -2.6658067507    1.4442365031
H        1.2998957140   -1.9008258198   -2.3473668233
H        1.5180108338   -0.1861381898    0.5729502577
H        5.3401860505   -1.1838968202   -1.1661817558
H        1.9353849652   -3.8601172598    0.1042600075
H        1.8531683318   -2.5389684714    1.2671793170
H        3.7890239843   -2.8360369210   -0.5727571027
27   
torsion grid (90,)
C       -2.1315195454   -1.8384794943   -1.4862894911
C        4.4127575056    1.8297764819    0.0135822909
C       -1.9992749006   -2.2898395612   -0.1677329989
C       -0.9856409380   -1.6174720401   -2.2560428807
C        3.0948075776    1.5216967964    0.3619967312
C        5.2235610713    0.8214940302   -0.5231936031
C       -0.7298015898   -2.5166168515    0.3699014481
C        0.2842114595   -1.8502355047   -1.7163673761
C        2.5836244186    0.2328567692    0.1843343675
C        4.7261759276   -0.4680532107   -0.7035059169
C        0.4223783646   -2.3048172660   -0.4008396509
C        3.3989874651   -0.7833273831   -0.3493708911
C        1.7898366678   -2.5875751551    0.2057758714
N        2.9092250662   -2.0766815830   -0.5767838502
H       -3.1176835803   -1.6557129730   -1.9055024234
H        4.8016669621    2.8342251611    0.1544501429
H       -2.8835596593   -2.4591475185    0.4417438745
H       -1.0785945346   -1.2584558625   -3.2781619354
H        2.4480699080    2.2927354888    0.7738455118
H        6.2522427700    1.0388972002   -0.8005333737
H       -0.6339899652   -2.8585285241    1.3994068746
H        1.1780494226   -1.6707435585   -2.3058657565
H        1.5493218895    0.0267781502    0.4389799396
H        5.3664191429   -1.2434680875   -1.1211727733
H        1.9134259472   -3.6740692524    0.2788767553
H        1.8185844209   -2.2015918634    1.2352112984
H        3.6486034617   -2.7544981954   -0.7088811932
27   
torsion grid (105,)
C       -2.2304932578   -2.0944857926   -1.5282028609
C        4.6912590848    1.8143290741   -0.0011404827
C       -2.0631220414   -2.7008354986   -0.2770550998
C       -1.1172224073   -1.5785449442   -2.1972621831
C        3.3415174494    1.6461828830    0.3230423245
C        5.4059105586    0.7212376398   -0.5064576594
C       -0.7913783434   -2.7860533658    0.2940567328
C        0.1566094452   -1.6674468162   -1.6233436793
C        2.7077479976    0.4131417404    0.1504592471
C        4.7871942300   -0.5170672021   -0.6749293844
C        0.3299655711   -2.2726021427   -0.3745250811
C        3.4285805046   -0.6913721639   -0.3445806414
C        1.6999013286   -2.3645978863    0.2830840422
N        2.8059751045   -1.9256661865   -0.5622439496
H       -3.2191609994   -2.0265876203   -1.9749461424
H        5.1764339883    2.7769095699    0.1329516202
H       -2.9223624143   -3.1066970412    0.2512529058
H       -1.2381848245   -1.1046169775   -3.1683674010
H        2.7667766360    2.4860364467    0.7060972289
H        6.4564366450    0.8301622810   -0.7650707958
H       -0.6692260500   -3.2578981895    1.2680859722
H        1.0256502647   -1.2729949958   -2.1410208851
H        1.6499558531    0.3159654736    0.3755475202
H        5.3566341218   -1.3608776936   -1.0613117498
H        1.8781505234   -3.4079023495    0.5687618571
H        1.6953593318   -1.7929430280    1.2197482429
H        3.4609423634   -2.6631486407   -0.7865780393
27   
torsion grid (120,)
C       -2.3009187751   -2.3490176339   -1.5937691715
C        4.9607151258    1.7811331791    0.0053649203
C       -2.0621403172   -3.0528107141   -0.4080734398
C       -1.2773463141   -1.5800284555   -2.1570016876
C        3.6045040555    1.7641492154    0.3467732924
C        5.5424033004    0.6134836762   -0.5025554114
C       -0.8087695196   -2.9830599930    0.2069061145
C       -0.0240499771   -1.5124092125   -1.5394332608
C        2.8360022758    0.6088795064    0.1876326497
C        4.7888431409   -0.5505005019   -0.6527773808
C        0.2198427934   -2.2111546989   -0.3509248517
C        3.4228780804   -0.5735909801   -0.3063735175
C        1.5608920581   -2.1059793153    0.3584658227
N        2.6678449984   -1.7313265596   -0.5156642475
H       -3.2734945077   -2.4045404944   -2.0761377582
H        5.5507402492    2.6849145566    0.1274279626
H       -2.8490185905   -3.6594070854    0.0334433118
H       -1.4538188281   -1.0337406223   -3.0804335952
H        3.1303217344    2.6646532343    0.7298039870
H        6.5949260782    0.6037682525   -0.7754537713
H       -0.6289619615   -3.5371203810    1.1269744606
H        0.7787954142   -0.9290802075   -1.9810031524
H        1.7757709100    0.6346985176    0.4219518372
H        5.2578372498   -1.4547281239   -1.0373754188
H        1.7838265377   -3.0648692446    0.8440786044
H        1.4874309210   -1.3753346880    1.1702132395
H        3.2193567368   -2.5183535953   -0.8323673624
27   
torsion grid (135,)
C       -1.9928996699   -2.8116205628   -1.7867381606
C        5.4081144282    1.5894867520   -0.0484486873
C       -1.5349651900   -3.6167496395   -0.7404278016
C       -1.3843814540   -1.5728380696   -2.0267457967
C        4.5799763930    1.3745066897    1.0566858996
C        5.2701956703    0.7553659980   -1.1657627692
C       -0.4723624383   -3.1854611161    0.0628713116
C       -0.3256249686   -1.1460205750   -1.2227810210
C        3.6279446374    0.3510861925    1.0570485712
C        4.3194818993   -0.2631817773   -1.1815608785
C        0.1397938286   -1.9476819482   -0.1676098488
C        3.4773206415   -0.4814448814   -0.0702439725
C        1.3080620667   -1.4827727063    0.6737824669
N        2.5581751011   -1.5304805402   -0.0940014416
H       -2.8181986165   -3.1441338893   -2.4110719541
H        6.1473972279    2.3852629337   -0.0401799547
H       -2.0014709014   -4.5798582171   -0.5496261900
H       -1.7391825975   -0.9403462475   -2.8365452222
H        4.6780032804    2.0036684897    1.9382746909
H        5.9038819566    0.9037010484   -2.0369369084
H       -0.1155828388   -3.8162225182    0.8741153961
H        0.1451663690   -0.1827861644   -1.4090994697
H        3.0213534679    0.1867477702    1.9423028566
H        4.2184732095   -0.8990268208   -2.0595201756
H        1.3875593960   -2.0982758551    1.5785165010
H        1.1250817049   -0.4520198027    1.0003111643
H        2.4436207818   -1.9473138631   -1.0095971449
27   
torsion grid (150,)
C       -2.0277872492   -3.0041100803   -1.7375560285
C        5.6150047363    1.4062218040    0.0837918828
C       -1.3114103243   -3.7589051649   -0.8026877865
C       -1.7112778767   -1.6545428087   -1.9287653393
C        4.6830056455    1.2843268653    1.1176442515
C        5.4699306928    0.6010662155   -1.0540952702
C       -0.2839037112   -3.1651593700   -0.0628012803
C       -0.6826263357   -1.0652578613   -1.1876972281
C        3.6201535349    0.3803522376    1.0273178609
C        4.4143677284   -0.3022907302   -1.1571820337
C        0.0393323398   -1.8134492535   -0.2462239654
C        3.4686551954   -0.4265966742   -0.1174905491
C        1.1838316626   -1.1842913483    0.5132455954
N        2.4417349794   -1.3682442796   -0.2232593520
H       -2.8290802304   -3.4631196737   -2.3109223253
H        6.4379703977    2.1110373339    0.1606542906
H       -1.5538639604   -4.8072864695   -0.6486276472
H       -2.2671314505   -1.0617927507   -2.6507468171
H        4.7809278669    1.8964560067    2.0111382176
H        6.1833774364    0.6800487347   -1.8709313873
H        0.2729917279   -3.7533601497    0.6631187894
H       -0.4388579695   -0.0153898333   -1.3370478701
H        2.9212717854    0.2931971214    1.8532736064
H        4.3130190422   -0.9216719700   -2.0466966613
H        1.2692520142   -1.6321628038    1.5108863093
H        0.9797838088   -0.1138655952    0.6552403832
H        2.2886888707   -1.6833749603   -1.1740210082
27   
torsion grid (165,)
C       -2.0658043243   -3.1643466649   -1.6117832210
C        5.7767004794    1.2315469261    0.2246160459
C       -1.0908257674   -3.8246364147   -0.8538676578
C       -2.0158609760   -1.7737501145   -1.7438987994
C        4.7401907416    1.2229967453    1.1608465224
C        5.6543754255    0.4393269105   -0.9253357231
C       -0.0748478672   -3.0957396386   -0.2312571617
C       -0.9945129273   -1.0471236092   -1.1208229872
C        3.5956887569    0.4435605875    0.9631833027
C        4.5219562024   -0.3446844342   -1.1317654141
C       -0.0178870787   -1.6989484710   -0.3572178641
C        3.4717084103   -0.3561747235   -0.1894205014
C        1.1035974064   -0.9222842809    0.2928227973
N        2.3663856427   -1.1863862868   -0.4014945976
H       -2.8585665878   -3.7306445512   -2.0938552092
H        6.6611023238    1.8419207972    0.3834829823
H       -1.1257192258   -4.9058266588   -0.7463704669
H       -2.7695125457   -1.2543890774   -2.3302817443
H        4.8153921256    1.8315168875    2.0589757740
H        6.4483897594    0.4324268260   -1.6682492235
H        0.6835896446   -3.6083360447    0.3558527827
H       -0.9577483300    0.0349329245   -1.2273334690
H        2.8076517813    0.4562243379    1.7089649701
H        4.4418113983   -0.9606344890   -2.0257345443
H        1.2067946938   -1.2226292582    1.3427681329
H        0.8613942088    0.1513441055    0.2876816026
H        2.2273255236   -1.4223405154   -1.3775576345
27   
torsion grid (180,)
C       -2.0906457335   -3.2954878693   -1.4559985461
C        5.8675019017    1.0425587837    0.3943008144
C       -0.9235526446   -3.8382810003   -0.9034465036
C       -2.2446714075   -1.9081971631   -1.5204917382
C        4.7495116266    1.1502425096    1.2240351180
C        5.7703046108    0.2681234881   -0.7702386505
C        0.0794133700   -2.9972401748   -0.4171201158
C       -1.2355659635   -1.0677648013   -1.0350262954
C        3.5497569688    0.5033024562    0.9084978387
C        4.5849828592   -0.3881409959   -1.0911027334
C       -0.0684087807   -1.6022811034   -0.4764709596
C        3.4526393613   -0.2849824019   -0.2545241841
C        1.0205318352   -0.6987769565    0.0592940895
N        2.2948388994   -0.9938858682   -0.5871413140
H       -2.8718003997   -3.9502026790   -1.8337728387
H        6.7938207567    1.5520213865    0.6439317127
H       -0.7983045270   -4.9168862244   -0.8502156472
H       -3.1457493351   -1.4788751680   -1.9510563843
H        4.8014604824    1.7515129451    2.1286583424
H        6.6269662608    0.1724031307   -1.4330989156
H        0.9878102153   -3.4162930098    0.0083949043
H       -1.3577552782    0.0117562697   -1.0923129405
H        2.6963564686    0.6191455760    1.5679756878
H        4.5262460938   -0.9959536916   -1.9922361717
H        1.1346890759   -0.8737485123    1.1358642885
H        0.7275988261    0.3561592874   -0.0622431941
H        2.2021890822   -1.1832280725   -1.5785693605
