25   
torsion grid (-165,)
C       -0.4075989930    0.8034412429    0.6972354052
N        0.2861168928   -0.0899468264    1.6789675345
C        1.5059862423    0.5992775664    2.2403703978
C        0.7652698293   -1.3171964441    0.9261640138
C       -0.6610762059   -0.3999788858    2.8555407966
C       -1.4436443060   -1.7126952625    2.7883033141
O       -0.6400092915   -2.8683342028    2.8748889925
P        0.4848100757   -2.8799896925    4.1549331965
O        0.6477040656   -4.4954040673    4.3170183237
O        1.7641262262   -2.3176158050    3.5601144727
O       -0.1894266954   -2.2508631369    5.3295852342
H       -1.3249758633    0.3153878430    0.3649629429
H       -0.6482053707    1.7526274243    1.1789551903
H        0.2472298996    0.9775719824   -0.1569966012
H        2.1138949937   -0.1666637032    2.7265902816
H        2.0553037830    1.0560823009    1.4140778421
H        1.1889870557    1.3673396619    2.9461990548
H        1.2894127136   -1.9637492468    1.6310782715
H       -0.0936608444   -1.8275772968    0.4953059670
H        1.4291638382   -0.9613474544    0.1352270734
H       -0.0561426559   -0.4093224524    3.7596834427
H       -1.3532177666    0.4439741651    2.9110230987
H       -2.1439617821   -1.6619488168    3.6324800260
H       -2.0315096701   -1.7882921353    1.8650762445
H        1.4923246713   -4.7610477825    3.9186117580
25   
torsion grid (-150,)
C       -0.3203394034    0.7472238516    0.6446537283
N        0.4669777773    0.0114953297    1.6856644881
C        1.6362504903    0.8525929752    2.1437522448
C        1.0328558552   -1.2389549327    1.0340656630
C       -0.4155992937   -0.2787882702    2.9086104830
C       -1.2771677175   -1.5415703794    2.8458323060
O       -0.5351660214   -2.7394805148    2.8955049556
P        0.5567887311   -2.8538062484    4.2025629093
O        0.6199017653   -4.4812094108    4.3191109029
O        1.8814745395   -2.3509406249    3.6592302926
O       -0.1174207320   -2.2215635882    5.3758098147
H       -1.2066531840    0.1630557264    0.3959099206
H       -0.6193310044    1.7208609903    1.0374783337
H        0.2961331524    0.8779239599   -0.2448708493
H        2.4413256983    0.1816485965    2.4397492481
H        1.9740824797    1.4635157162    1.3041698174
H        1.3272666152    1.4943672821    2.9674220790
H        1.5629711168   -1.8123559793    1.8003519814
H        0.2130153027   -1.8253532456    0.6247306426
H        1.6981768739   -0.9023210452    0.2354009879
H        0.2495386938   -0.3536308959    3.7668497938
H       -1.0466207198    0.6063161089    3.0299749045
H       -1.9525407970   -1.4665815752    3.7077821569
H       -1.8900446351   -1.5705314779    1.9359239403
H        1.4621503025   -4.7822022522    3.9413536666
25   
torsion grid (-135,)
C       -0.2239864814    0.2478182548    0.4891450522
N        0.7293079187    0.1574084314    1.6425144252
C        1.7619840286    1.2653167631    1.5459493623
C        1.4567518765   -1.1733483360    1.5438145353
C       -0.0247625741    0.3214392013    2.9687207562
C       -0.8324077477   -0.8865987171    3.4493222677
O       -0.0342763164   -1.9710421769    3.8656724562
P        1.0971831834   -1.5947708275    5.0904217895
O        1.1932092567   -3.0690651012    5.7875252548
O        2.3974894155   -1.3135015286    4.3643526058
O        0.4361594518   -0.5875079819    5.9740328734
H       -0.9914855463   -0.5167906415    0.6032152844
H       -0.6864733476    1.2365337482    0.4784119661
H        0.3241247969    0.0816486171   -0.4386140445
H        2.7459197359    0.8459361484    1.7448625830
H        1.7543443219    1.6679479836    0.5321920080
H        1.5261845538    2.0548151610    2.2563645210
H        2.0789606744   -1.2955843516    2.4382140687
H        0.7204008234   -1.9732554139    1.5090432501
H        2.0420075443   -1.1461880393    0.6215940205
H        0.7217598542    0.5655027720    3.7233867675
H       -0.6798504091    1.1859269775    2.8251119323
H       -1.4393131874   -0.5083386220    4.2816422085
H       -1.5137528901   -1.2572680589    2.6733988870
H        2.0349148571   -3.4750737719    5.5240868136
25   
torsion grid (-120,)
C       -0.2468875961   -2.4629008428    3.3700499108
N        0.5477260309   -1.4660472060    2.5802980689
C        0.9240175965   -2.0642964541    1.2328666470
C        1.8202511122   -1.1491953151    3.3460807749
C       -0.3029157737   -0.2122706530    2.3244080914
C       -0.5589929700    0.6985446403    3.5275547913
O        0.5904700173    1.3854246924    3.9673038561
P        1.3330779708    2.3617460270    2.7744127002
O        1.9874824032    3.4859618086    3.7634384373
O        2.4479089997    1.5169275960    2.1932454963
O        0.2221941307    2.9120668505    1.9402475359
H       -0.5138128260   -2.0244326537    4.3303352893
H       -1.1507948094   -2.7240504616    2.8174012643
H        0.3624032064   -3.3529799676    3.5322818594
H        2.0080430125   -2.0898912620    1.1448013796
H        0.5256011277   -3.0757636438    1.1593237944
H        0.5144166675   -1.4500298948    0.4342788670
H        2.3514711879   -0.3451006550    2.8231431909
H        1.5508578415   -0.7935155793    4.3379298276
H        2.3959324821   -2.0754755746    3.4065572320
H        0.2148361041    0.3627361863    1.5577342324
H       -1.2480974057   -0.5816865067    1.9154198271
H       -1.3273855884    1.4046945805    3.1885157640
H       -0.9613863969    0.1447178260    4.3844236470
H        2.9435888161    3.3245295103    3.8137008007
25   
torsion grid (-105,)
C       -0.2444722173    0.1104161394    0.5479238130
N        0.7313220782    0.1037215443    1.6867176618
C        1.6861609097    1.2745967102    1.5385858510
C        1.5220998801   -1.1898683624    1.6604771691
C       -0.0348031946    0.2878869409    3.0078313346
C       -0.9013904037   -0.8881373002    3.4648504293
O       -0.1507503507   -2.0074220187    3.8781788856
P        0.9295810622   -1.6944397882    5.1691840463
O        0.9645118036   -3.1964761584    5.8124209277
O        2.2697443081   -1.4110322119    4.5231314886
O        0.2393135243   -0.7083708197    6.0541766099
H       -0.8996061318   -0.7547604627    0.6345483582
H       -0.8329822873    1.0281040554    0.5821962670
H        0.3076424704    0.0557477296   -0.3917846074
H        2.6520677101    0.9074638551    1.1957130796
H        1.2745042508    2.0042761394    0.8426698750
H        1.8334864311    1.7351833218    2.5134107149
H        2.1664902829   -1.2235117519    2.5463146341
H        0.8265509954   -2.0235494089    1.7212232025
H        2.0778114408   -1.2088208935    0.7205313422
H        0.7130041965    0.4846530062    3.7747634852
H       -0.6455643344    1.1846073667    2.8667195824
H       -1.4984480073   -0.4931284365    4.2963799169
H       -1.5908715088   -1.2223996261    2.6804748733
H        1.8183771704   -3.6007078732    5.5883630176
25   
torsion grid (-90,)
C       -0.0950179124    0.3048010912    0.2968525523
N        0.7320291729    0.2295277454    1.5451801137
C        1.7537640588    1.3522424994    1.5518674212
C        1.4779967938   -1.0858563226    1.5726573401
C       -0.2357589267    0.4288853929    2.7452384411
C       -0.6450003290   -0.8212356261    3.5277729293
O        0.4114701910   -1.4614581447    4.2057338789
P        1.3997051456   -0.4327393933    5.1349076170
O        1.9837679159   -1.5412574504    6.1799788579
O        2.5151714725   -0.0085076427    4.1957572140
O        0.4984710658    0.5596107900    5.7931301119
H       -0.8297643587   -0.5018229027    0.3119716323
H       -0.6017825650    1.2687129052    0.2559167942
H        0.5547737723    0.1932327583   -0.5733115595
H        2.6642477058    0.9970456811    1.0684172782
H        1.3361724226    2.2318211717    1.0635594852
H        2.0260287636    1.5388159926    2.5909298738
H        2.1385152158   -1.0702442563    2.4405768481
H        0.7651742154   -1.9039053812    1.6455381613
H        2.0358435878   -1.1550160558    0.6365086622
H        0.2348977457    1.1254982099    3.4335247750
H       -1.1313644726    0.9017793632    2.3379022612
H       -1.4011656682   -0.4604834427    4.2381963286
H       -1.1214776437   -1.5665725675    2.8791768526
H        2.8964561913   -1.7533022525    5.9256377005
25   
torsion grid (-75,)
C       -0.0603014466    0.1561404681    0.4221869162
N        0.7756359325    0.1167687444    1.6649716936
C        1.7851962696    1.2418027414    1.6465517151
C        1.5371871636   -1.1894079280    1.7123660774
C       -0.1678881716    0.3442549239    2.8749295991
C       -0.5821845915   -0.8913848748    3.6770961225
O        0.4768883419   -1.5326338430    4.3506328629
P        1.4762961344   -0.5049703796    5.2688370155
O        2.0522777975   -1.6092382504    6.3226691856
O        2.5959209673   -0.1005686363    4.3251739342
O        0.5852202685    0.5015667969    5.9189631068
H       -0.7998850614   -0.6447715356    0.4695537224
H       -0.5618294157    1.1215175636    0.3538416129
H        0.5814867390    0.0123305851   -0.4488725176
H        2.5798876170    0.9838646349    0.9441294762
H        1.2851468281    2.1708620945    1.3724878103
H        2.2243800200    1.2867358583    2.6465680105
H        2.1984669768   -1.1559432977    2.5792504382
H        0.8331533870   -2.0140016660    1.7969544003
H        2.0961636003   -1.2657959541    0.7773789262
H        0.3275956869    1.0411175829    3.5464176375
H       -1.0608749515    0.8288962267    2.4751478940
H       -1.3273480548   -0.5165663931    4.3915317701
H       -1.0709969372   -1.6402443668    3.0418166857
H        2.9635756714   -1.8295189293    6.0702992470
25   
torsion grid (-60,)
C       -0.0072708118    0.1647169305    0.4822635849
N        0.8125480822    0.1130046510    1.7345097711
C        1.8386267355    1.2191781611    1.7315096279
C        1.5591218434   -1.2042857129    1.7695494398
C       -0.1207483864    0.3462867670    2.9456533202
C       -0.5755835462   -0.8913344005    3.7218400865
O        0.4626772420   -1.5729532464    4.3889757618
P        1.4867016111   -0.5921643650    5.3316973705
O        2.0140200792   -1.7290292954    6.3761759832
O        2.6298557212   -0.2133780865    4.4056985610
O        0.6228685294    0.4346247061    5.9869840372
H       -0.7751032163   -0.6088917655    0.5319720319
H       -0.4749229212    1.1462139540    0.3964073759
H        0.6381031044   -0.0128459161   -0.3792287466
H        2.4890467779    1.0898361577    0.8640622973
H        1.3199250796    2.1776654702    1.6784886804
H        2.4079822582    1.1250686628    2.6606432475
H        2.1969066273   -1.2045234262    2.6541741019
H        0.8421270245   -2.0214416601    1.8092105028
H        2.1447261021   -1.2609503078    0.8495115014
H        0.4012686247    1.0094596717    3.6317998488
H       -0.9939636740    0.8734595599    2.5549634889
H       -1.3145930768   -0.5103949480    4.4392308417
H       -1.0796826021   -1.6153194225    3.0698688365
H        2.9190183649   -1.9787071586    6.1285276148
25   
torsion grid (-45,)
C        0.0009235848    0.1150813752    0.4069885919
N        0.8415579520    0.1239276964    1.6462999796
C        1.8592685772    1.2369176441    1.5783962736
C        1.6062544120   -1.1853893711    1.6967523391
C       -0.0559296107    0.3803550054    2.8747374860
C       -0.5027726609   -0.8437395193    3.6761131128
O        0.5464727728   -1.5177820280    4.3345124475
P        1.5953769855   -0.5268887683    5.2398355261
O        2.1311441187   -1.6472524787    6.2978928777
O        2.7250562083   -0.1757892091    4.2870882119
O        0.7507763630    0.5191982707    5.8898947735
H       -0.7711422698   -0.6486428547    0.5114153970
H       -0.4632059307    1.0941808759    0.2777291903
H        0.6299296019   -0.1128357299   -0.4540753886
H        2.3163406889    1.2363362328    0.5870264314
H        1.3373779453    2.1852223033    1.7205128241
H        2.5754602357    1.0746342849    2.3870221610
H        2.2429348555   -1.1709378578    2.5818246216
H        0.8981959022   -2.0104822482    1.7398382482
H        2.1955118051   -1.2409538634    0.7788644992
H        0.4934577697    1.0417575609    3.5411371797
H       -0.9301073284    0.9174757066    2.4987069353
H       -1.2277187284   -0.4505541806    4.4011084289
H       -1.0199065998   -1.5763706120    3.0442152877
H        3.0289393990   -1.9110061031    6.0389018610
25   
torsion grid (-30,)
C        0.2484348412   -0.1784703209    0.0293914498
N        1.1967961122    0.2384115352    1.1116597079
C        2.1323684610    1.3128973727    0.6004941103
C        2.0484560208   -0.9735373737    1.4509211201
C        0.4103953327    0.8068545085    2.3073220038
C        0.0695639411   -0.1664883641    3.4369653586
O        1.1924443302   -0.6276143890    4.1555229901
P        2.2693070457    0.5857559091    4.6787493193
O        2.9333424794   -0.2114321773    5.9384373420
O        3.3036156803    0.7000314569    3.5726037495
O        1.4350986510    1.7472191159    5.1094957913
H       -0.4635474867   -0.8937565539    0.4433379538
H       -0.2850675344    0.6983928497   -0.3422580253
H        0.8090735170   -0.6436065102   -0.7815133631
H        2.2869099768    1.1719300472   -0.4702750911
H        1.6430758205    2.2791727837    0.7335263769
H        3.0426105829    1.2876668489    1.1985865193
H        2.7464883691   -0.6864980168    2.2385212115
H        1.4001705829   -1.7827590325    1.7810892432
H        2.5695774426   -1.2557093631    0.5333595456
H        1.0037720355    1.6168111691    2.7252665505
H       -0.5053342094    1.2294722893    1.8855019219
H       -0.6077754334    0.3952698083    4.0936225481
H       -0.4702974559   -1.0472768080    3.0674557206
H        3.8205692041   -0.5092339682    5.6799576125
25   
torsion grid (-15,)
C        0.2552155219   -0.6778584664    0.4720763429
N        1.1964415352    0.1999682132    1.2404798529
C        1.9167875527    1.1385597037    0.2905259442
C        2.2392248363   -0.6949548349    1.8910742178
C        0.4216710300    1.0459427248    2.2588722146
C       -0.0287744154    0.3335413289    3.5364096236
O        1.0327687112   -0.0024021114    4.4008932878
P        2.0227059025    1.3132182445    4.8588869709
O        2.5276450022    0.7399225196    6.3026774998
O        3.1899106807    1.2938890839    3.8915223167
O        1.1150150800    2.4916526240    4.9975232110
H       -0.2969129327   -1.3031398526    1.1728712915
H       -0.4406403808   -0.0551341835   -0.0933764415
H        0.8303872243   -1.3073655636   -0.2072995711
H        1.7905189857    0.7876093237   -0.7335806398
H        1.4613408455    2.1259006774    0.3622669606
H        2.9626532119    1.2087306468    0.5798087786
H        2.8741938915   -0.0740679893    2.5334294319
H        1.7317602038   -1.4405826583    2.4991973530
H        2.7962617856   -1.1706725399    1.0805367903
H        1.0705565675    1.8764516713    2.5329511996
H       -0.4428672014    1.4368590468    1.7140932607
H       -0.7193365618    1.0340447456    4.0228785553
H       -0.5800431384   -0.5893454264    3.3168715714
H        3.4471952593    0.4433294469    6.2069146253
25   
torsion grid (0,)
C        0.3298298038   -0.8389179349    0.7984946732
N        1.2076041236    0.2592148282    1.3205267956
C        1.8076440230    1.0317834272    0.1551150159
C        2.3360522658   -0.3676183913    2.1207837281
C        0.3710627485    1.2353097181    2.1619270867
C       -0.0857869510    0.7372164906    3.5352805653
O        0.9658096048    0.6051090825    4.4643085065
P        1.8543927482    2.0409130835    4.7397455163
O        2.3228597457    1.7380717331    6.2755670628
O        3.0654146999    1.9494544303    3.8343982456
O        0.8685921651    3.1605345807    4.6538474019
H       -0.0999266803   -1.3808044809    1.6395857182
H       -0.4664128453   -0.4070089729    0.1900612025
H        0.9334691916   -1.5190393599    0.1962000709
H        1.4586073663    0.6056580813   -0.7848222389
H        1.4965771844    2.0725918897    0.2145922575
H        2.8926831717    0.9844645499    0.2146258556
H        2.9194631187    0.4344607042    2.5883025258
H        1.9058290799   -0.9832874759    2.9073775158
H        2.9211204330   -0.9746143563    1.4263064532
H        0.9809677092    2.1268719483    2.3014399180
H       -0.4924914447    1.4882080390    1.5395146810
H       -0.8149718806    1.4823576725    3.8774957441
H       -0.5951952423   -0.2320778836    3.4724697146
H        3.2635402674    1.4978849444    6.2632422996
25   
torsion grid (15,)
C        0.3141373817   -0.8447956807    0.7592832850
N        1.2208256303    0.2071546874    1.3245703898
C        1.7996457249    1.0368808127    0.1925671544
C        2.3515941231   -0.4607463435    2.0824959534
C        0.4000233981    1.1503472422    2.2214380656
C       -0.0957942551    0.5716710734    3.5487796850
O        0.9381506656    0.3405494940    4.4787021216
P        1.8471995856    1.7338755826    4.8829335619
O        2.3053698646    1.2837644791    6.3857774512
O        3.0607527760    1.7096601630    3.9771116743
O        0.8766359890    2.8696886770    4.8953752831
H       -0.0667881294   -1.4610331527    1.5719640877
H       -0.5137424425   -0.3647857684    0.2360335451
H        0.8826841340   -1.4678846228    0.0668357682
H        1.2311705226    0.8577554983   -0.7196116879
H        1.7836951432    2.0894029752    0.4641960748
H        2.8310962071    0.7294446358    0.0248262822
H        2.9573618229    0.3164623143    2.5620326231
H        1.9251540249   -1.0834523122    2.8653882784
H        2.9109568814   -1.0620749026    1.3626060772
H        1.0370844146    2.0076043355    2.4343336010
H       -0.4427447201    1.4764916099    1.6046969727
H       -0.8049231285    1.3149803333    3.9342400258
H       -0.6353565249   -0.3730001939    3.4112863217
H        3.2469009841    1.0485444684    6.3560986564
25   
torsion grid (30,)
C       -0.4732325271    0.5755456357   -0.8731401470
N        0.3359828307    0.4024417219    0.3763035177
C        1.4873799500    1.3920702852    0.3841196067
C        0.9141698730   -0.9944623810    0.4111276373
C       -0.6009372336    0.7241412961    1.5752574768
C       -1.1454720534   -0.4608702617    2.3765038198
O       -0.1658432938   -1.2096684211    3.0585239320
P        0.9393507262   -0.2899298393    3.9694040260
O        1.3977583209   -1.4445375657    5.0271256121
O        2.0909953845   -0.0098883984    3.0198455306
O        0.1627097386    0.8087077777    4.6175213203
H       -1.2989437590   -0.1376832272   -0.8588912004
H       -0.8612363919    1.5929644059   -0.9155173974
H        0.1598138395    0.3858118560   -1.7422486892
H        1.1899728315    2.2874285527   -0.1626869755
H        1.8045948845    1.5546233990    1.4126962418
H        2.3157737735    0.9376807357   -0.1632239996
H        1.5748087024   -1.0541818660    1.2767867613
H        0.1065154741   -1.7183940668    0.4910698469
H        1.4569064607   -1.1380249188   -0.5254391131
H       -0.0532681058    1.3739277645    2.2524578577
H       -1.4396807228    1.2880543068    1.1629135814
H       -1.8510967981   -0.0064652740    3.0852325594
H       -1.7082080583   -1.1547718411    1.7401430929
H        2.2788910666   -1.7629774307    4.7724450089
25   
torsion grid (45,)
C       -0.5758368102    0.3459176305   -0.6063321855
N        0.2233499486    0.2344885111    0.6554960731
C        1.3401511143    1.2535047714    0.6540518841
C        0.8498192599   -1.1405198612    0.7293771862
C       -0.7191382441    0.5653078797    1.8427572353
C       -1.2578059806   -0.6137984369    2.6561232725
O       -0.2736620886   -1.3387562960    3.3577666577
P        0.8031607659   -0.3935438032    4.2765334840
O        1.2542909868   -1.5274502167    5.3592802372
O        1.9716173083   -0.1146626877    3.3467161911
O        0.0013370480    0.7049686241    4.8931610307
H       -1.3905654194   -0.3790992201   -0.5717299325
H       -0.9798238085    1.3547306147   -0.6914582710
H        0.0682272775    0.1334980038   -1.4615856019
H        0.9405423253    2.2124188016    0.3207589984
H        1.7757675288    1.2720200295    1.6551195640
H        2.0905010207    0.9270878038   -0.0700555371
H        1.4940508026   -1.1639737934    1.6091330475
H        0.0656948479   -1.8903715507    0.8054598530
H        1.4176519770   -1.2812249248   -0.1926685477
H       -0.1759005757    1.2270515803    2.5129651141
H       -1.5577293596    1.1206117634    1.4179563387
H       -1.9765952367   -0.1600563768    3.3516035909
H       -1.8034468643   -1.3249262498    2.0238267681
H        2.1449421095   -1.8370378316    5.1278141049
25   
torsion grid (60,)
C       -0.5236577915    0.0719056294   -0.1969110057
N        0.2801336117   -0.0520475096    1.0604613427
C        1.4283242068    0.9267610034    1.0437089050
C        0.8680446556   -1.4464650898    1.1226141332
C       -0.6232680563    0.3102238680    2.2625744729
C       -1.2210703721   -0.8517046347    3.0585189558
O       -0.2707667959   -1.6366164512    3.7430499860
P        0.8577308565   -0.7643027462    4.6727579079
O        1.2463587620   -1.9351723098    5.7402190702
O        2.0397311652   -0.5382433039    3.7456110325
O        0.1174590049    0.3680055330    5.3050650206
H       -1.3760758775   -0.6066328499   -0.1380031201
H       -0.8743466950    1.0991966528   -0.3023913607
H        0.0997199042   -0.1945862151   -1.0516546821
H        1.0232329989    1.9372158128    0.9674391812
H        1.9839603271    0.7834543294    1.9745802597
H        2.0539467118    0.7134091212    0.1744022053
H        1.4986165207   -1.5050002355    2.0104461169
H        0.0606558194   -2.1738191716    1.1726183361
H        1.4462549855   -1.5873684340    0.2069474493
H       -0.0294611988    0.9205039211    2.9393864779
H       -1.4278552624    0.9284402168    1.8582288994
H       -1.9129972087   -0.3744960305    3.7652019022
H       -1.8037723357   -1.5243767241    2.4172031619
H        2.1170153754   -2.2926598960    5.5017961980
25   
torsion grid (75,)
C       -0.3703280982    0.1367251937    0.1034451329
N        0.3417908992   -0.1066306316    1.3986100167
C        1.5492717019    0.7928613927    1.5063629787
C        0.8433171180   -1.5383968084    1.3890109615
C       -0.6004566040    0.2259304306    2.5734167230
C       -1.3454798157   -0.9443579784    3.2183014735
O       -0.5104642275   -1.8610433487    3.8899359915
P        0.6142271367   -1.1687279921    4.9658331590
O        0.8253060995   -2.4520182345    5.9510601567
O        1.8762236080   -0.9720446435    4.1437966369
O       -0.0772434775   -0.0315676731    5.6434094301
H       -1.2780320525   -0.4681656314    0.0816806479
H       -0.6287941012    1.1940556718    0.0263356069
H        0.2804767345   -0.1462302573   -0.7244501854
H        1.2124730680    1.8058154842    1.7314400496
H        2.1409813611    0.4235766864    2.3482622769
H        2.1073824625    0.7597576742    0.5695558714
H        1.3840044136   -1.7136464538    2.3196281391
H       -0.0060109311   -2.2126134887    1.2991912802
H        1.4969658299   -1.6369168669    0.5195735511
H       -0.0001142250    0.7113120575    3.3398416193
H       -1.3174339727    0.9528996479    2.1840384462
H       -2.0479593624   -0.4732880639    3.9185196837
H       -1.9298796690   -1.5092433148    2.4814977677
H        1.6806782042   -2.8617746021    5.7433714313
25   
torsion grid (90,)
C       -0.3168305879    0.1472472534    0.2751369756
N        0.3080169290   -0.1306919407    1.6087990337
C        1.5207352044    0.7518767881    1.8093715872
C        0.7954291175   -1.5695224337    1.5844772290
C       -0.7003152037    0.1699661306    2.7316299379
C       -1.5619375539   -0.9980128336    3.2147470908
O       -0.8373649387   -2.0031857057    3.8886329113
P        0.1989402324   -1.4458993190    5.1227883229
O        0.2611210187   -2.8097613430    6.0168389918
O        1.5435599733   -1.2415855412    4.4474114607
O       -0.5180551748   -0.3358948405    5.8186538461
H       -1.2316045091   -0.4401266313    0.1861215712
H       -0.5526546570    1.2103865439    0.2007061472
H        0.3801979746   -0.1345019435   -0.5142612007
H        1.2103764600    1.6813587063    2.2863052652
H        2.1736134022    0.2389671897    2.5174759121
H        2.0142466175    0.9237495743    0.8529815874
H        1.2430502953   -1.7917478045    2.5546615643
H       -0.0488960066   -2.2269433491    1.3870796046
H        1.5265875065   -1.6382176030    0.7757962387
H       -0.1328289884    0.5466729434    3.5795911803
H       -1.3342464043    0.9755326605    2.3517160828
H       -2.3043679308   -0.5406605769    3.8818315206
H       -2.0998819588   -1.4772473347    2.3871607906
H        1.1165316873   -3.2413029545    5.8596589477
25   
torsion grid (105,)
C       -0.4846489732   -0.3902291051    0.3577308226
N        0.4393834870   -0.1868943748    1.5207951783
C        1.5328797508    0.7944266630    1.1422373955
C        1.0943480720   -1.5225265629    1.8322158368
C       -0.3317816756    0.3899028833    2.7152569671
C       -1.1901365530   -0.5945517019    3.5130323843
O       -0.4385400613   -1.5251897866    4.2587479045
P        0.6945209868   -0.8295861307    5.3322049691
O        0.7432464338   -2.0306720950    6.4381772745
O        2.0074538462   -0.8110993219    4.5742212739
O        0.0585587047    0.4127401927    5.8650683077
H       -1.2977930490   -1.0482587893    0.6622404898
H       -0.8880902687    0.5740799828    0.0432226176
H        0.0703526223   -0.8479703069   -0.4615582101
H        1.3350615509    1.7566555210    1.6116608271
H        2.4729736908    0.4267958906    1.5509348924
H        1.5969481700    0.8820171663    0.0585515038
H        1.6977321933   -1.4074498916    2.7398683287
H        0.3164095015   -2.2622166687    2.0084127513
H        1.6932182979   -1.7916902263    0.9590183036
H        0.4087846334    0.8269149304    3.3834560183
H       -0.9521494997    1.1903188200    2.3013618904
H       -1.7990993844    0.0332900619    4.1757998226
H       -1.8693229598   -1.1625893601    2.8650946194
H        1.5736790368   -2.5195298656    6.3194202104
25   
torsion grid (120,)
C       -0.7619362411   -0.3371284041    0.4269944189
N        0.0954937431   -0.1789613218    1.6472095978
C        1.1374605702    0.9024937784    1.4025729722
C        0.8099051119   -1.4941802467    1.9054424620
C       -0.7724089444    0.2545479494    2.8381536823
C       -1.7002340792   -0.8081162262    3.4321106145
O       -1.0154874243   -1.8355245695    4.1118806652
P       -0.0182691343   -1.2962356843    5.3933578724
O       -0.0937231990   -2.6330874847    6.3299282904
O        1.3747359894   -1.1902711453    4.8078780162
O       -0.7247270348   -0.1300337154    6.0046214503
H       -1.5098504814   -1.1058533261    0.6150467608
H       -1.2531319859    0.6116374445    0.2048942604
H       -0.1326154884   -0.6376667064   -0.4116555582
H        1.0106422952    1.6997928022    2.1316093326
H        2.1290311336    0.4733287527    1.5311195071
H        1.0294351833    1.2966123044    0.3929035276
H        1.3546870211   -1.4151531179    2.8537168638
H        0.0661339879   -2.2818743188    2.0016201547
H        1.4630493242   -1.6762481044    1.0491454542
H       -0.0874235534    0.5902595705    3.6157368985
H       -1.3507819227    1.1110837150    2.4790822117
H       -2.3560115617   -0.2581822903    4.1187941059
H       -2.3288365635   -1.2795976083    2.6669596550
H        0.7523724328   -3.1033677924    6.2545693756
25   
torsion grid (135,)
C       -0.7655099426   -0.2819336503    0.3865928040
N        0.0899956992   -0.2363644520    1.6171907920
C        1.1203752873    0.8699861233    1.4765452483
C        0.8055104374   -1.5639700561    1.7777870980
C       -0.7912544476    0.0965249251    2.8332134563
C       -1.7646071098   -0.9925110702    3.2908693655
O       -1.1244830762   -2.1074345883    3.8684487966
P       -0.1616226265   -1.7382158318    5.2350525598
O       -0.2827419907   -3.1770999312    6.0007391555
O        1.2510722472   -1.5833345299    4.7121158596
O       -0.8760332048   -0.6430424010    5.9580103248
H       -1.4743526121   -1.1034580484    0.4755257017
H       -1.3009632517    0.6627296937    0.2838366419
H       -0.1267689407   -0.4457788764   -0.4828907630
H        1.1677153125    1.4384514531    2.4024934821
H        2.0924033537    0.4355358168    1.2519296079
H        0.8192894140    1.5399756227    0.6708621049
H        1.3546315660   -1.5530753932    2.7262123481
H        0.0617789156   -2.3555114292    1.8310856503
H        1.4513274456   -1.6893945601    0.9060317108
H       -0.1130112690    0.3222688939    3.6549842173
H       -1.3339671961    1.0058514853    2.5579535588
H       -2.4179053910   -0.4989253125    4.0212792991
H       -2.3905654366   -1.3584815376    2.4682796134
H        0.5633068624   -3.6431329550    5.9021911543
25   
torsion grid (150,)
C       -0.5542004611    0.9150577618    0.5147110431
N       -0.1809387530   -0.0990835892    1.5539734074
C        0.9323362500    0.4470683020    2.4306323373
C        0.3298195894   -1.3497957469    0.8719713410
C       -1.4407087745   -0.3332882213    2.4324654632
C       -2.2701687239   -1.5853436359    2.1382455852
O       -1.6056796903   -2.7999200159    2.4011519615
P       -0.8479640068   -2.8862556079    3.9245197894
O       -0.7948991449   -4.5105799296    4.0722968911
O        0.5597854835   -2.3670715204    3.6924533095
O       -1.7751382256   -2.2492099126    4.9067904503
H       -1.3596704818    0.5085731377   -0.0989063907
H       -0.8849988310    1.8308413689    1.0039105967
H        0.3140459728    1.1252703698   -0.1128709570
H        0.8368197692    0.0142228709    3.4234219407
H        1.8949323812    0.1953654409    1.9883519282
H        0.8197454841    1.5314057165    2.4885301417
H        0.6705627708   -2.0311687820    1.6530990590
H       -0.4726368585   -1.7995232228    0.2921826058
H        1.1444231368   -1.0417292270    0.2130891035
H       -1.1164765551   -0.3746070497    3.4683409961
H       -2.0678992823    0.5510061728    2.3038973333
H       -3.1570184296   -1.4808630644    2.7778464920
H       -2.6087313000   -1.6114962112    1.0950756867
H        0.1139680221   -4.8052552700    3.8997579092
25   
torsion grid (165,)
C       -0.4713132422    0.8691997498    0.7451549924
N       -0.0346971177   -0.1668856606    1.7353728746
C        1.1179354901    0.3580823759    2.5611500922
C        0.4465988308   -1.3964988095    0.9972657570
C       -1.2274578967   -0.4293878672    2.6919255818
C       -2.0649379609   -1.6832902395    2.4305440941
O       -1.3736712923   -2.8964833237    2.6219468430
P       -0.5233691066   -3.0135996372    4.0925385362
O       -0.4583752294   -4.6402444220    4.2020365097
O        0.8681262005   -2.4882430090    3.7843331275
O       -1.3872924006   -2.3990460690    5.1440144647
H       -1.3201652915    0.4802748730    0.1805649866
H       -0.7609938529    1.7767757192    1.2745182848
H        0.3529646105    1.0875238649    0.0636233525
H        1.2261692406   -0.2965990637    3.4274963468
H        2.0200297439    0.3685760225    1.9485270822
H        0.8718199212    1.3723293967    2.8823982878
H        0.8310227890   -2.0967481631    1.7402010922
H       -0.3823751159   -1.8356167889    0.4470987723
H        1.2259155833   -1.0677544609    0.3064795004
H       -0.8291501115   -0.4847208802    3.7017800483
H       -1.8685759153    0.4517380037    2.6238662828
H       -2.9072521212   -1.6009838948    3.1304777042
H       -2.4724099170   -1.6918564642    1.4120679569
H        0.4395332862   -4.9282958629    3.9708345765
25   
torsion grid (180,)
C       -0.3389317497    0.7780022649    0.9746150886
N        0.1171463337   -0.2960198645    1.9132952968
C        1.3340481811    0.1629715725    2.6783480768
C        0.5178733680   -1.5103143748    1.1016985550
C       -1.0071500429   -0.5623820177    2.9416252833
C       -1.9021984402   -1.7785502213    2.6946829646
O       -1.2373852404   -3.0182410831    2.7888126379
P       -0.2829675731   -3.2251669365    4.1836216530
O       -0.2925363783   -4.8554776064    4.2421515760
O        1.1061622349   -2.7599741955    3.7815230322
O       -1.0302336671   -2.6044272830    5.3177077356
H       -1.2496877362    0.4449631925    0.4744981609
H       -0.5377806437    1.6903272084    1.5380878162
H        0.4398088436    0.9645051317    0.2336468207
H        1.6196626669   -0.6569743307    3.3432849169
H        2.1285025218    0.3957437149    1.9666169306
H        1.0686657525    1.0552826476    3.2481319515
H        0.9026248857   -2.2620774820    1.7916921893
H       -0.3509751210   -1.8856457903    0.5653510512
H        1.2833442304   -1.1808733622    0.3959112271
H       -0.5342589690   -0.6755142222    3.9145711227
H       -1.6184654313    0.3426255074    2.9594475819
H       -2.6891073245   -1.7004967518    3.4566346033
H       -2.3810209989   -1.7351103642    1.7086983503
H        0.5668591900   -5.1800353230    3.9278471166
