18   
torsion grid (-45,)
C        0.7170181448   -0.0059014530    2.6099536836
C        0.1344693428    0.7170611034    3.6215269985
C       -0.0479179119    0.4011949986    1.4028926814
C        0.7657396440   -1.2903498439   -0.4066872760
C       -1.1932861967    0.2518781975   -0.9016873386
C        0.0382822987    1.0589981288   -1.0652639469
C        0.0137399804   -0.0686039889    0.0018013986
N       -1.1283805268    1.0226583762    1.8465200457
O        0.8975302441   -1.6548371477   -1.5618830854
O       -0.6138818397    1.6838600994    3.0083180340
O        1.3014123359   -1.9934171946    0.6260642294
H        1.4672398417   -0.7779245050    2.6728900734
H        0.3547891101    0.8484003206    4.6736310595
H       -2.0410583098    0.6942279852   -0.3926625400
H       -1.4070418434   -0.5025076002   -1.6502103503
H        0.6728434472    0.8681071551   -1.9235816464
H        0.0522094809    2.0636713538   -0.6565874990
H        1.7480816225   -2.7593734468    0.2154602271
18   
torsion grid (-30,)
C        0.8090623874    0.1065987327    2.5485781179
C        0.1893005104    0.7261725189    3.5962051810
C       -0.0801974678    0.3602679357    1.4298742420
C        0.7424840254   -1.3133995438   -0.3768161115
C       -1.1545668399    0.2842683143   -0.9204142798
C        0.1042604203    1.0646363533   -1.0303595715
C        0.0125764415   -0.0726896126    0.0142776986
N       -1.2039569334    0.8954249444    1.8798896219
O        0.9220902422   -1.6680032725   -1.5286500686
O       -0.8300482644    1.4808519412    3.1110231390
O        1.1929794697   -2.0487524936    0.6744021599
H        1.7053982575   -0.4933645134    2.5567859475
H        0.4600666407    0.8942435986    4.6309751429
H       -2.0097804177    0.7390828977   -0.4355550412
H       -1.3620038727   -0.4493958140   -1.6910149457
H        0.7600907937    0.8716206907   -1.8722174255
H        0.1280193975    2.0654744511   -0.6123093420
H        1.6257171185   -2.8306295290    0.2795426825
18   
torsion grid (-15,)
C        0.8467477478    0.1878300381    2.5154973136
C        0.2203484222    0.7410084360    3.5898636007
C       -0.1146437239    0.3272492569    1.4575931846
C        0.7011800084   -1.3217557547   -0.3577228844
C       -1.1457761005    0.3278620970   -0.9195897317
C        0.1360109524    1.0794325450   -0.9938776289
C       -0.0071286785   -0.0674010421    0.0291723331
N       -1.2472071690    0.8320398070    1.9143477633
O        0.8871212808   -1.6796676188   -1.5074251887
O       -0.9578779361    1.2858557324    3.2107960889
O        1.1261770064   -2.0623984287    0.7004862624
H        1.8152681044   -0.2860851702    2.4747269454
H        0.5150219534    0.9218470165    4.6156062227
H       -1.9996079595    0.7967880056   -0.4457219165
H       -1.3572144961   -0.3862645071   -1.7073217214
H        0.8010042780    0.8833379442   -1.8279576469
H        0.1764940621    2.0747177747   -0.5637248997
H        1.5476543145   -2.8544004868    0.3139972360
18   
torsion grid (0,)
C        0.8463142935    0.2109780803    2.4996712161
C        0.2294140798    0.7661231176    3.5772395544
C       -0.1403761617    0.2954513370    1.4641863199
C        0.6863216543   -1.3278058483   -0.3583147215
C       -1.1434543566    0.3387470129   -0.9277865756
C        0.1451233258    1.0824846169   -0.9809693669
C       -0.0185174876   -0.0720892241    0.0283587919
N       -1.2479246010    0.8619417114    1.9048421637
O        0.8807881779   -1.6827125151   -1.5074185158
O       -1.0187984359    1.1645030734    3.2515468511
O        1.0995111529   -2.0722485121    0.7022066122
H        1.8363859264   -0.2144589497    2.4404639381
H        0.5287435555    0.9392383038    4.6027253138
H       -1.9988508392    0.8093162761   -0.4579843601
H       -1.3525301612   -0.3647347047   -1.7257350351
H        0.8165220134    0.8905358602   -1.8109612316
H        0.1884192822    2.0729139101   -0.5400930572
H        1.5218556660   -2.8651792868    0.3186878681
18   
torsion grid (15,)
C        0.8675626318    0.2072828517    2.4662394721
C        0.2568760487    0.8023372330    3.5292729106
C       -0.1340674115    0.2316920872    1.4330730336
C        0.7332087713   -1.3907935207   -0.3622176944
C       -1.1073472779    0.2501385750   -0.9724052952
C        0.1741487857    1.0075458053   -1.0189042766
C        0.0113935875   -0.1378244480   -0.0003487437
N       -1.2011219088    0.8891623967    1.8437093262
O        0.9534510618   -1.7550669046   -1.5035376148
O       -1.0336753430    1.0612261766    3.2226374397
O        1.1287862417   -2.1215277536    0.7145653502
H        1.8692679505   -0.1906171721    2.4057971739
H        0.5523827111    0.9788127210    4.5552359032
H       -1.9721572092    0.7160071094   -0.5146528311
H       -1.3012364532   -0.4618816815   -1.7666991193
H        0.8560638121    0.8143456715   -1.8400708889
H        0.2027705629    2.0021614088   -0.5865437777
H        1.5652827579   -2.9154398239    0.3493962016
18   
torsion grid (30,)
C        0.8304331509    0.1344032432    2.5111743856
C        0.2573831328    0.8166210224    3.5459552698
C       -0.1480776004    0.2487477068    1.4429225084
C        0.7423745810   -1.3554061441   -0.3639557929
C       -1.1354080478    0.2473149860   -0.9547162345
C        0.1269536188    1.0311653126   -1.0153650071
C        0.0029932380   -0.1168802702    0.0086145076
N       -1.0812575025    1.1121999176    1.8036611261
O        0.9613502752   -1.7081106082   -1.5091579530
O       -1.0286787618    1.1011353407    3.2147227743
O        1.1515124978   -2.0922809917    0.7040612778
H        1.7942190436   -0.3496053377    2.4755172398
H        0.5278575964    0.9651415495    4.5838953842
H       -2.0011429385    0.6956050471   -0.4804134410
H       -1.3244308196   -0.4695542854   -1.7458960201
H        0.8048529627    0.8502892875   -1.8426674239
H        0.1401279987    2.0248126383   -0.5806434148
H        1.5957757109   -2.8769784781    0.3283765313
18   
torsion grid (45,)
C        0.4059071577   -0.1879693175    2.6233417824
C        0.1439273959    0.7814644094    3.5601060399
C       -0.0175518079    0.4408580265    1.3456476560
C        0.9074852370   -1.2317579832   -0.4310265701
C       -1.1833394167    0.1376126184   -0.9095141447
C       -0.0191957869    1.0169707266   -1.1669167247
C        0.0976062868   -0.0387033015   -0.0495879793
N       -0.1664249416    1.7298753335    1.5989876631
O        0.9562909918   -1.6884229034   -1.5597062091
O       -0.6675794410    1.6923849590    2.9414253831
O        1.6139474923   -1.7847079828    0.5901063786
H        0.9145649930   -1.1301106611    2.7505803472
H        0.1968041163    0.8126960939    4.6413299503
H       -2.0309750762    0.5503021239   -0.3730589850
H       -1.3866534340   -0.6694719110   -1.6045600632
H        0.5843129836    0.8125481889   -2.0438606471
H       -0.0557803105    2.0438041575   -0.8235052475
H        2.0962093016   -2.5369853322    0.1948168971
